0
     RDKit          3D

 18  0  0  0  0  0  0  0  0  0999 V2000
    7.5834   21.0935   19.1836 C   0  0  0  0  0  0  0  0  0  0  0  0
    3.5427   16.5506   20.0577 O   0  0  0  0  0  0  0  0  0  0  0  0
    3.8317   17.4054   19.7031 O   0  0  0  0  0  0  0  0  0  0  0  0
    6.7096   20.2320   19.4135 O   0  0  0  0  0  0  0  0  0  0  0  0
    5.7135   14.1911   10.6164 C   0  0  0  0  0  0  0  0  0  0  0  0
    6.7096   20.2320   19.4135 C   0  0  0  0  0  0  0  0  0  0  0  0
    3.8317   17.4054   19.7031 O   0  0  0  0  0  0  0  0  0  0  0  0
    7.5834   21.0935   19.1836 C   0  0  0  0  0  0  0  0  0  0  0  0
    2.3935   16.6637   21.0549 O   0  0  0  0  0  0  0  0  0  0  0  0
    2.3935   16.6637   21.0549 O   0  0  0  0  0  0  0  0  0  0  0  0
    6.7096   20.2320   19.4135 C   0  0  0  0  0  0  0  0  0  0  0  0
    6.2912   14.3172    9.9063 C   0  0  0  0  0  0  0  0  0  0  0  0
    3.8391   14.5145   12.1623 C   0  0  0  0  0  0  0  0  0  0  0  0
    5.9293   15.1426    9.9273 C   0  0  0  0  0  0  0  0  0  0  0  0
    2.5906   16.6390   20.4363 C   0  0  0  0  0  0  0  0  0  0  0  0
   -0.0423   15.0057   20.1853 C   0  0  0  0  0  0  0  0  0  0  0  0
    6.2912   14.3172    9.9063 C   0  0  0  0  0  0  0  0  0  0  0  0
    6.7096   20.2320   19.4135 C   0  0  0  0  0  0  0  0  0  0  0  0
M  END
$$$$

225
  MOE2022           3D

 46 49  0  0  0  0  0  0  0  0999 V2000
    6.7560   20.8040   18.0530 C   0  0  0  0  0  0  0  0  0  0  0  0
    5.7950   19.7980   18.0650 C   0  0  0  0  0  0  0  0  0  0  0  0
    4.7440   19.7810   17.1330 C   0  0  0  0  0  0  0  0  0  0  0  0
    3.7790   18.6690   17.1250 C   0  0  0  0  0  0  0  0  0  0  0  0
    3.3160   18.1050   15.9250 C   0  0  0  0  0  0  0  0  0  0  0  0
    3.3100   18.1350   18.3310 C   0  0  0  0  0  0  0  0  0  0  0  0
    2.3730   17.0930   18.3680 C   0  0  0  0  0  0  0  0  0  0  0  0
    2.3590   17.0930   15.9340 C   0  0  0  0  0  0  0  0  0  0  0  0
    1.9250   16.5190   19.6330 C   0  0  0  0  0  0  0  0  0  0  0  0
    1.8840   16.6080   17.1480 C   0  0  0  0  0  0  0  0  0  0  0  0
    1.7870   16.5400   14.6400 C   0  0  0  0  0  0  0  0  0  0  0  0
    0.7320   15.9990   19.8260 N   0  0  0  0  0  0  0  0  0  0  0  0
    2.6760   16.4460   20.7090 N   0  0  0  0  0  0  0  0  0  0  0  0
    1.9220   15.8530   21.6120 N   0  5  0  0  0  0  0  0  0  0  0  0
    2.7850   16.1360   13.6420 N   0  0  0  0  0  0  0  0  0  0  0  0
    4.6730   20.8610   16.2300 C   0  0  0  0  0  0  0  0  0  0  0  0
    2.8690   16.6760   12.3760 C   0  0  0  0  0  0  0  0  0  0  0  0
    0.7390   15.5870   21.0750 N   0  0  0  0  0  0  0  0  0  0  0  0
    3.7510   16.0320   11.3950 C   0  0  0  0  0  0  0  0  0  0  0  0
    3.6340   20.9780   15.3530 O   0  0  0  0  0  0  0  0  0  0  0  0
    2.2110   17.6850   12.1300 O   0  0  0  0  0  0  0  0  0  0  0  0
    4.3550   16.7560   10.3430 C   0  0  0  0  0  0  0  0  0  0  0  0
    6.6850   21.8330   17.1190 C   0  0  0  0  0  0  0  0  0  0  0  0
    5.6370   21.8660   16.2080 C   0  0  0  0  0  0  0  0  0  0  0  0
    4.0440   14.6630   11.4910 C   0  0  0  0  0  0  0  0  0  0  0  0
    4.9400   14.0750   10.6020 C   0  0  0  0  0  0  0  0  0  0  0  0
    4.1160   18.0900   10.1780 O   0  0  0  0  0  0  0  0  0  0  0  0
    5.2540   12.7530   10.7350 O   0  0  0  0  0  0  0  0  0  0  0  0
    5.5360   14.8050    9.5760 C   0  0  0  0  0  0  0  0  0  0  0  0
    5.2330   16.1530    9.4420 C   0  0  0  0  0  0  0  0  0  0  0  0
    7.5490   20.7850   18.7570 H   0  0  0  0  0  0  0  0  0  0  0  0
    5.8720   19.0300   18.7880 H   0  0  0  0  0  0  0  0  0  0  0  0
    3.6890   18.4550   14.9980 H   0  0  0  0  0  0  0  0  0  0  0  0
    3.6750   18.5210   19.2460 H   0  0  0  0  0  0  0  0  0  0  0  0
    1.1410   15.8540   17.1550 H   0  0  0  0  0  0  0  0  0  0  0  0
    1.1640   15.6830   14.8600 H   0  0  0  0  0  0  0  0  0  0  0  0
    1.1020   17.2690   14.2300 H   0  0  0  0  0  0  0  0  0  0  0  0
    3.3460   15.3000   13.8630 H   0  0  0  0  0  0  0  0  0  0  0  0
    2.9780   20.2700   15.5100 H   0  0  0  0  0  0  0  0  0  0  0  0
    7.4230   22.5930   17.1110 H   0  0  0  0  0  0  0  0  0  0  0  0
    5.5660   22.6570   15.5060 H   0  0  0  0  0  0  0  0  0  0  0  0
    3.5910   14.0710   12.2430 H   0  0  0  0  0  0  0  0  0  0  0  0
    3.4070   18.3850   10.7880 H   0  0  0  0  0  0  0  0  0  0  0  0
    4.8740   12.3880   11.5610 H   0  0  0  0  0  0  0  0  0  0  0  0
    6.2090   14.3360    8.9060 H   0  0  0  0  0  0  0  0  0  0  0  0
    5.6670   16.7190    8.6590 H   0  0  0  0  0  0  0  0  0  0  0  0
  1  2  1  0  0  0  0
  1 23  2  0  0  0  0
  1 31  1  0  0  0  0
  2  3  2  0  0  0  0
  2 32  1  0  0  0  0
  3  4  1  0  0  0  0
  3 16  1  0  0  0  0
  4  5  1  0  0  0  0
  4  6  2  0  0  0  0
  5  8  2  0  0  0  0
  5 33  1  0  0  0  0
  6  7  1  0  0  0  0
  6 34  1  0  0  0  0
  7  9  1  0  0  0  0
  7 10  2  0  0  0  0
  8 10  1  0  0  0  0
  8 11  1  0  0  0  0
  9 12  1  0  0  0  0
  9 13  2  0  0  0  0
 10 35  1  0  0  0  0
 11 15  1  0  0  0  0
 11 36  1  0  0  0  0
 11 37  1  0  0  0  0
 12 18  2  0  0  0  0
 13 14  1  0  0  0  0
 14 18  1  0  0  0  0
 15 17  1  0  0  0  0
 15 38  1  0  0  0  0
 16 20  1  0  0  0  0
 16 24  2  0  0  0  0
 17 19  1  0  0  0  0
 17 21  2  0  0  0  0
 19 22  1  0  0  0  0
 19 25  2  0  0  0  0
 20 39  1  0  0  0  0
 22 27  1  0  0  0  0
 22 30  2  0  0  0  0
 23 24  1  0  0  0  0
 23 40  1  0  0  0  0
 24 41  1  0  0  0  0
 25 26  1  0  0  0  0
 25 42  1  0  0  0  0
 26 28  1  0  0  0  0
 26 29  2  0  0  0  0
 27 43  1  0  0  0  0
 28 44  1  0  0  0  0
 29 30  1  0  0  0  0
 29 45  1  0  0  0  0
 30 46  1  0  0  0  0
M  CHG  1  14  -1
M  END

$$$$
242
  MOE2022           3D

 55 57  0  0  1  0  0  0  0  0999 V2000
    1.4040   16.0610   20.4260 C   0  0  0  0  0  0  0  0  0  0  0  0
    0.0620   15.7300   20.2750 C   0  0  0  0  0  0  0  0  0  0  0  0
    2.1080   16.6140   19.3600 C   0  0  0  0  0  0  0  0  0  0  0  0
   -0.5720   15.9400   19.0570 C   0  0  0  0  0  0  0  0  0  0  0  0
    0.1280   16.5030   17.9950 C   0  0  0  0  0  0  0  0  0  0  0  0
    1.4690   16.8550   18.1400 C   0  0  0  0  0  0  0  0  0  0  0  0
    2.2020   17.4760   16.9600 C   0  0  1  0  0  0  0  0  0  0  0  0
    3.2130   18.4520   17.4030 N   0  0  0  0  0  0  0  0  0  0  0  0
    2.7670   16.4070   16.0300 C   0  0  0  0  0  0  0  0  0  0  0  0
    4.0140   19.1960   16.5690 C   0  0  0  0  0  0  0  0  0  0  0  0
    2.2080   16.3030   14.8140 N   0  0  0  0  0  0  0  0  0  0  0  0
    3.8480   19.0810   15.3560 O   0  0  0  0  0  0  0  0  0  0  0  0
    5.0200   20.0800   17.1740 C   0  0  0  0  0  0  0  0  0  0  0  0
    3.7090   15.6940   16.3710 O   0  0  0  0  0  0  0  0  0  0  0  0
    2.7480   15.4670   13.7500 C   0  0  1  0  0  0  0  0  0  0  0  0
    1.7710   14.4080   13.2460 C   0  0  0  0  0  0  0  0  0  0  0  0
    3.0140   16.2530   12.4740 C   0  0  0  0  0  0  0  0  0  0  0  0
    5.4640   19.8610   18.4890 C   0  0  0  0  0  0  0  0  0  0  0  0
    2.3340   14.0800   11.8550 C   0  0  0  0  0  0  0  0  0  0  0  0
    5.5870   21.1650   16.4680 C   0  0  0  0  0  0  0  0  0  0  0  0
    3.1810   15.2100   11.4770 N   0  0  0  0  0  0  0  0  0  0  0  0
    6.4270   20.6940   19.0510 C   0  0  0  0  0  0  0  0  0  0  0  0
    5.2070   21.4540   15.1880 O   0  0  0  0  0  0  0  0  0  0  0  0
    4.1870   15.1910   10.5790 C   0  0  0  0  0  0  0  0  0  0  0  0
    6.8520   20.4630   20.3250 O   0  0  0  0  0  0  0  0  0  0  0  0
    4.9180   16.1670   10.4030 O   0  0  0  0  0  0  0  0  0  0  0  0
    6.5530   21.9940   17.0400 C   0  0  0  0  0  0  0  0  0  0  0  0
    6.9760   21.7600   18.3410 C   0  0  0  0  0  0  0  0  0  0  0  0
    4.4260   13.9030    9.7730 C   0  0  0  0  0  0  0  0  0  0  0  0
    5.6100   13.9890    8.8000 C   0  0  0  0  0  0  0  0  0  0  0  0
    1.8930   15.8930   21.3510 H   0  0  0  0  0  0  0  0  0  0  0  0
   -0.4820   15.3220   21.0850 H   0  0  0  0  0  0  0  0  0  0  0  0
    3.1320   16.8500   19.4860 H   0  0  0  0  0  0  0  0  0  0  0  0
   -1.5920   15.6790   18.9380 H   0  0  0  0  0  0  0  0  0  0  0  0
   -0.3680   16.6640   17.0720 H   0  0  0  0  0  0  0  0  0  0  0  0
    1.4660   18.0380   16.3990 H   0  0  0  0  0  0  0  0  0  0  0  0
    3.2750   18.6140   18.4190 H   0  0  0  0  0  0  0  0  0  0  0  0
    1.4340   16.9050   14.5780 H   0  0  0  0  0  0  0  0  0  0  0  0
    3.6700   14.9750   14.0590 H   0  0  0  0  0  0  0  0  0  0  0  0
    1.7680   13.5320   13.8910 H   0  0  0  0  0  0  0  0  0  0  0  0
    0.7690   14.8290   13.1510 H   0  0  0  0  0  0  0  0  0  0  0  0
    2.1530   16.8720   12.2190 H   0  0  0  0  0  0  0  0  0  0  0  0
    3.8980   16.8760   12.5880 H   0  0  0  0  0  0  0  0  0  0  0  0
    5.0770   19.0590   19.0630 H   0  0  0  0  0  0  0  0  0  0  0  0
    2.9240   13.1670   11.9170 H   0  0  0  0  0  0  0  0  0  0  0  0
    1.5220   13.9480   11.1390 H   0  0  0  0  0  0  0  0  0  0  0  0
    4.5160   20.8220   14.8940 H   0  0  0  0  0  0  0  0  0  0  0  0
    6.5200   19.6010   20.6430 H   0  0  0  0  0  0  0  0  0  0  0  0
    6.9610   22.7990   16.4840 H   0  0  0  0  0  0  0  0  0  0  0  0
    7.7100   22.3790   18.7890 H   0  0  0  0  0  0  0  0  0  0  0  0
    4.6200   13.0840   10.4650 H   0  0  0  0  0  0  0  0  0  0  0  0
    3.5230   13.6690    9.2080 H   0  0  0  0  0  0  0  0  0  0  0  0
    6.5270   14.1930    9.3550 H   0  0  0  0  0  0  0  0  0  0  0  0
    5.7170   13.0430    8.2700 H   0  0  0  0  0  0  0  0  0  0  0  0
    5.4390   14.7880    8.0780 H   0  0  0  0  0  0  0  0  0  0  0  0
  1  2  2  0  0  0  0
  1  3  1  0  0  0  0
  1 31  1  0  0  0  0
  2  4  1  0  0  0  0
  2 32  1  0  0  0  0
  3  6  2  0  0  0  0
  3 33  1  0  0  0  0
  4  5  2  0  0  0  0
  4 34  1  0  0  0  0
  5  6  1  0  0  0  0
  5 35  1  0  0  0  0
  6  7  1  0  0  0  0
  7  8  1  0  0  0  0
  7  9  1  0  0  0  0
  7 36  1  0  0  0  0
  8 10  1  0  0  0  0
  8 37  1  0  0  0  0
  9 11  1  0  0  0  0
  9 14  2  0  0  0  0
 10 12  2  0  0  0  0
 10 13  1  0  0  0  0
 11 15  1  0  0  0  0
 11 38  1  0  0  0  0
 13 18  2  0  0  0  0
 13 20  1  0  0  0  0
 15 16  1  0  0  0  0
 15 17  1  0  0  0  0
 15 39  1  0  0  0  0
 16 19  1  0  0  0  0
 16 40  1  0  0  0  0
 16 41  1  0  0  0  0
 17 21  1  0  0  0  0
 17 42  1  0  0  0  0
 17 43  1  0  0  0  0
 18 22  1  0  0  0  0
 18 44  1  0  0  0  0
 19 21  1  0  0  0  0
 19 45  1  0  0  0  0
 19 46  1  0  0  0  0
 20 23  1  0  0  0  0
 20 27  2  0  0  0  0
 21 24  1  0  0  0  0
 22 25  1  0  0  0  0
 22 28  2  0  0  0  0
 23 47  1  0  0  0  0
 24 26  2  0  0  0  0
 24 29  1  0  0  0  0
 25 48  1  0  0  0  0
 27 28  1  0  0  0  0
 27 49  1  0  0  0  0
 28 50  1  0  0  0  0
 29 30  1  0  0  0  0
 29 51  1  0  0  0  0
 29 52  1  0  0  0  0
 30 53  1  0  0  0  0
 30 54  1  0  0  0  0
 30 55  1  0  0  0  0
M  END

$$$$
246
  MOE2022           3D

 53 55  0  0  1  0  0  0  0  0999 V2000
    3.5900   17.7330   19.5680 O   0  0  0  0  0  0  0  0  0  0  0  0
    2.6530   17.3360   18.8640 C   0  0  0  0  0  0  0  0  0  0  0  0
    1.5710   16.5190   19.3420 C   0  0  0  0  0  0  0  0  0  0  0  0
    2.6390   17.6810   17.5090 N   0  0  0  0  0  0  0  0  0  0  0  0
    0.5940   16.1330   18.4740 C   0  0  0  0  0  0  0  0  0  0  0  0
    1.6280   17.1960   16.6630 C   0  0  0  0  0  0  0  0  0  0  0  0
    0.6530   16.4800   17.1430 N   0  0  0  0  0  0  0  0  0  0  0  0
    1.7290   17.4880   15.2420 C   0  0  0  0  0  0  0  0  0  0  0  0
    3.7090   18.5630   16.9670 C   0  0  0  0  0  0  0  0  0  0  0  0
    1.5470   16.1080   20.8070 C   0  0  0  0  0  0  0  0  0  0  0  0
   -0.5880   15.2780   18.8860 C   0  0  0  0  0  0  0  0  0  0  0  0
    3.4520   20.0810   17.0750 C   0  0  1  0  0  0  0  0  0  0  0  0
    4.4000   20.7130   18.0910 C   0  0  0  0  0  0  0  0  0  0  0  0
    1.0270   18.5620   14.6770 C   0  0  0  0  0  0  0  0  0  0  0  0
    3.8850   20.7960   15.7960 C   0  0  0  0  0  0  0  0  0  0  0  0
    1.1860   18.8810   13.3330 C   0  0  0  0  0  0  0  0  0  0  0  0
    2.0590   18.1310   12.5410 C   0  0  0  0  0  0  0  0  0  0  0  0
    2.2070   18.4990   11.2270 O   0  0  0  0  0  0  0  0  0  0  0  0
    2.5620   16.7200   14.4070 C   0  0  0  0  0  0  0  0  0  0  0  0
    3.2100   15.6320   14.9150 O   0  0  0  0  0  0  0  0  0  0  0  0
    5.2950   21.1140   15.9470 O   0  0  0  0  0  0  0  0  0  0  0  0
    3.5140   18.6790   10.6060 C   0  0  0  0  0  0  0  0  0  0  0  0
    2.7490   17.0400   13.0670 C   0  0  0  0  0  0  0  0  0  0  0  0
    5.6390   21.0260   17.2800 C   0  0  0  0  0  0  0  0  0  0  0  0
    4.0080   17.4760    9.8290 C   0  0  0  0  0  0  0  0  0  0  0  0
    6.9070   21.1850   17.6990 C   0  0  0  0  0  0  0  0  0  0  0  0
    4.8920   16.7670   10.3590 O   0  5  0  0  0  0  0  0  0  0  0  0
    3.5380   17.2880    8.6870 O   0  0  0  0  0  0  0  0  0  0  0  0
    7.3400   21.0750   19.1430 C   0  0  0  0  0  0  0  0  0  0  0  0
    7.2370   22.3400   19.8060 O   0  0  0  0  0  0  0  0  0  0  0  0
    4.6460   18.3600   17.4540 H   0  0  0  0  0  0  0  0  0  0  0  0
    3.9450   18.3020   15.9460 H   0  0  0  0  0  0  0  0  0  0  0  0
    0.7860   16.6520   21.3480 H   0  0  0  0  0  0  0  0  0  0  0  0
    1.3430   15.0530   20.9120 H   0  0  0  0  0  0  0  0  0  0  0  0
    2.4910   16.2850   21.3040 H   0  0  0  0  0  0  0  0  0  0  0  0
   -1.0220   15.6140   19.8160 H   0  0  0  0  0  0  0  0  0  0  0  0
   -1.3740   15.3000   18.1430 H   0  0  0  0  0  0  0  0  0  0  0  0
   -0.2930   14.2450   19.0090 H   0  0  0  0  0  0  0  0  0  0  0  0
    2.4070   20.2750   17.3190 H   0  0  0  0  0  0  0  0  0  0  0  0
    3.9800   21.6350   18.4710 H   0  0  0  0  0  0  0  0  0  0  0  0
    4.5990   20.0790   18.9430 H   0  0  0  0  0  0  0  0  0  0  0  0
    0.3750   19.1400   15.2810 H   0  0  0  0  0  0  0  0  0  0  0  0
    3.7220   20.1820   14.9100 H   0  0  0  0  0  0  0  0  0  0  0  0
    3.3320   21.7310   15.7000 H   0  0  0  0  0  0  0  0  0  0  0  0
    0.6550   19.6950   12.9100 H   0  0  0  0  0  0  0  0  0  0  0  0
    2.8730   15.4150   15.8080 H   0  0  0  0  0  0  0  0  0  0  0  0
    3.4310   19.5200    9.9330 H   0  0  0  0  0  0  0  0  0  0  0  0
    4.2200   18.9500   11.3760 H   0  0  0  0  0  0  0  0  0  0  0  0
    3.3890   16.4560   12.4590 H   0  0  0  0  0  0  0  0  0  0  0  0
    7.6810   21.4070   17.0120 H   0  0  0  0  0  0  0  0  0  0  0  0
    6.7370   20.3570   19.6820 H   0  0  0  0  0  0  0  0  0  0  0  0
    8.3650   20.7340   19.2070 H   0  0  0  0  0  0  0  0  0  0  0  0
    7.8310   22.9800   19.3820 H   0  0  0  0  0  0  0  0  0  0  0  0
  1  2  2  0  0  0  0
  2  3  1  0  0  0  0
  2  4  1  0  0  0  0
  3  5  2  0  0  0  0
  3 10  1  0  0  0  0
  4  6  1  0  0  0  0
  4  9  1  0  0  0  0
  5  7  1  0  0  0  0
  5 11  1  0  0  0  0
  6  7  2  0  0  0  0
  6  8  1  0  0  0  0
  8 14  1  0  0  0  0
  8 19  2  0  0  0  0
  9 12  1  0  0  0  0
  9 31  1  0  0  0  0
  9 32  1  0  0  0  0
 10 33  1  0  0  0  0
 10 34  1  0  0  0  0
 10 35  1  0  0  0  0
 11 36  1  0  0  0  0
 11 37  1  0  0  0  0
 11 38  1  0  0  0  0
 12 13  1  0  0  0  0
 12 15  1  0  0  0  0
 12 39  1  0  0  0  0
 13 24  1  0  0  0  0
 13 40  1  0  0  0  0
 13 41  1  0  0  0  0
 14 16  2  0  0  0  0
 14 42  1  0  0  0  0
 15 21  1  0  0  0  0
 15 43  1  0  0  0  0
 15 44  1  0  0  0  0
 16 17  1  0  0  0  0
 16 45  1  0  0  0  0
 17 18  1  0  0  0  0
 17 23  2  0  0  0  0
 18 22  1  0  0  0  0
 19 20  1  0  0  0  0
 19 23  1  0  0  0  0
 20 46  1  0  0  0  0
 21 24  1  0  0  0  0
 22 25  1  0  0  0  0
 22 47  1  0  0  0  0
 22 48  1  0  0  0  0
 23 49  1  0  0  0  0
 24 26  2  0  0  0  0
 25 27  1  0  0  0  0
 25 28  2  0  0  0  0
 26 29  1  0  0  0  0
 26 50  1  0  0  0  0
 29 30  1  0  0  0  0
 29 51  1  0  0  0  0
 29 52  1  0  0  0  0
 30 53  1  0  0  0  0
M  CHG  1  27  -1
M  END

$$$$
268
  MOE2022           3D

 52 54  0  0  1  0  0  0  0  0999 V2000
    8.4270   20.7380   18.6000 C   0  0  0  0  0  0  0  0  0  0  0  0
    8.4550   21.9750   17.9670 C   0  0  0  0  0  0  0  0  0  0  0  0
    7.2150   20.0890   18.8100 C   0  0  0  0  0  0  0  0  0  0  0  0
    6.0220   20.6720   18.3840 C   0  0  0  0  0  0  0  0  0  0  0  0
    6.0560   21.9140   17.7480 C   0  0  0  0  0  0  0  0  0  0  0  0
    7.2690   22.5640   17.5420 C   0  0  0  0  0  0  0  0  0  0  0  0
    4.7000   19.9580   18.5990 C   0  0  0  0  0  0  0  0  0  0  0  0
    4.2120   19.1370   17.4040 C   0  0  0  0  0  0  0  0  0  0  0  0
    3.1300   18.2140   17.4810 N   0  0  0  0  0  0  0  0  0  0  0  0
    2.6890   17.6490   18.7040 C   0  0  0  0  0  0  0  0  0  0  0  0
    2.4370   17.8450   16.2140 C   0  0  2  0  0  0  0  0  0  0  0  0
    4.7030   19.3490   16.3120 O   0  0  0  0  0  0  0  0  0  0  0  0
    1.1130   18.6340   16.1200 C   0  0  1  0  0  0  0  0  0  0  0  0
    1.2880   17.2910   18.9940 C   0  0  0  0  0  0  0  0  0  0  0  0
    2.3580   16.3090   15.9960 C   0  0  0  0  0  0  0  0  0  0  0  0
    0.9820   16.7610   20.0510 O   0  0  0  0  0  0  0  0  0  0  0  0
    3.5440   17.4220   19.5500 O   0  0  0  0  0  0  0  0  0  0  0  0
    0.7460   18.8690   14.7770 O   0  0  0  0  0  0  0  0  0  0  0  0
   -0.0510   17.9560   16.8310 C   0  0  0  0  0  0  0  0  0  0  0  0
    1.9450   15.8370   14.5910 C   0  0  0  0  0  0  0  0  0  0  0  0
    3.0740   15.6140   13.7100 O   0  0  0  0  0  0  0  0  0  0  0  0
    3.2900   16.2840   12.5140 C   0  0  0  0  0  0  0  0  0  0  0  0
    0.2330   17.5160   18.1740 O   0  0  0  0  0  0  0  0  0  0  0  0
    3.7780   15.5660   11.4140 C   0  0  0  0  0  0  0  0  0  0  0  0
    3.0700   17.6590   12.4100 C   0  0  0  0  0  0  0  0  0  0  0  0
    3.3480   18.3000   11.2050 C   0  0  0  0  0  0  0  0  0  0  0  0
    4.0000   14.2170   11.5080 O   0  0  0  0  0  0  0  0  0  0  0  0
    3.1390   19.6550   11.1270 O   0  0  0  0  0  0  0  0  0  0  0  0
    3.8380   17.5770   10.1080 C   0  0  0  0  0  0  0  0  0  0  0  0
    4.1200   18.1970    8.9140 O   0  0  0  0  0  0  0  0  0  0  0  0
    4.0550   16.2050   10.2080 C   0  0  0  0  0  0  0  0  0  0  0  0
    9.3310   20.2890   18.9200 H   0  0  0  0  0  0  0  0  0  0  0  0
    9.3790   22.4670   17.8070 H   0  0  0  0  0  0  0  0  0  0  0  0
    7.2030   19.1470   19.2940 H   0  0  0  0  0  0  0  0  0  0  0  0
    5.1570   22.3650   17.4160 H   0  0  0  0  0  0  0  0  0  0  0  0
    7.2900   23.5070   17.0590 H   0  0  0  0  0  0  0  0  0  0  0  0
    4.7830   19.3840   19.5050 H   0  0  0  0  0  0  0  0  0  0  0  0
    3.9460   20.7000   18.8150 H   0  0  0  0  0  0  0  0  0  0  0  0
    3.0250   18.1910   15.3790 H   0  0  0  0  0  0  0  0  0  0  0  0
    1.2770   19.6080   16.5850 H   0  0  0  0  0  0  0  0  0  0  0  0
    3.3330   15.8740   16.2210 H   0  0  0  0  0  0  0  0  0  0  0  0
    1.6520   15.8850   16.7040 H   0  0  0  0  0  0  0  0  0  0  0  0
    0.0380   19.5180   14.7540 H   0  0  0  0  0  0  0  0  0  0  0  0
   -0.8900   18.6520   16.8730 H   0  0  0  0  0  0  0  0  0  0  0  0
   -0.3660   17.0880   16.2520 H   0  0  0  0  0  0  0  0  0  0  0  0
    1.4380   14.8780   14.6980 H   0  0  0  0  0  0  0  0  0  0  0  0
    1.2400   16.5270   14.1320 H   0  0  0  0  0  0  0  0  0  0  0  0
    2.7120   18.2160   13.2320 H   0  0  0  0  0  0  0  0  0  0  0  0
    3.7920   13.8920   12.4080 H   0  0  0  0  0  0  0  0  0  0  0  0
    3.2880   19.9930   10.2240 H   0  0  0  0  0  0  0  0  0  0  0  0
    3.8820   19.1420    8.9340 H   0  0  0  0  0  0  0  0  0  0  0  0
    4.4250   15.6560    9.3800 H   0  0  0  0  0  0  0  0  0  0  0  0
  1  2  2  0  0  0  0
  1  3  1  0  0  0  0
  1 32  1  0  0  0  0
  2  6  1  0  0  0  0
  2 33  1  0  0  0  0
  3  4  2  0  0  0  0
  3 34  1  0  0  0  0
  4  5  1  0  0  0  0
  4  7  1  0  0  0  0
  5  6  2  0  0  0  0
  5 35  1  0  0  0  0
  6 36  1  0  0  0  0
  7  8  1  0  0  0  0
  7 37  1  0  0  0  0
  7 38  1  0  0  0  0
  8  9  1  0  0  0  0
  8 12  2  0  0  0  0
  9 10  1  0  0  0  0
  9 11  1  0  0  0  0
 10 14  1  0  0  0  0
 10 17  2  0  0  0  0
 11 13  1  0  0  0  0
 11 15  1  0  0  0  0
 11 39  1  0  0  0  0
 13 18  1  0  0  0  0
 13 19  1  0  0  0  0
 13 40  1  0  0  0  0
 14 16  2  0  0  0  0
 14 23  1  0  0  0  0
 15 20  1  0  0  0  0
 15 41  1  0  0  0  0
 15 42  1  0  0  0  0
 18 43  1  0  0  0  0
 19 23  1  0  0  0  0
 19 44  1  0  0  0  0
 19 45  1  0  0  0  0
 20 21  1  0  0  0  0
 20 46  1  0  0  0  0
 20 47  1  0  0  0  0
 21 22  1  0  0  0  0
 22 24  1  0  0  0  0
 22 25  2  0  0  0  0
 24 27  1  0  0  0  0
 24 31  2  0  0  0  0
 25 26  1  0  0  0  0
 25 48  1  0  0  0  0
 26 28  1  0  0  0  0
 26 29  2  0  0  0  0
 27 49  1  0  0  0  0
 28 50  1  0  0  0  0
 29 30  1  0  0  0  0
 29 31  1  0  0  0  0
 30 51  1  0  0  0  0
 31 52  1  0  0  0  0
M  END

$$$$
272
  MOE2022           3D

 56 58  0  0  1  0  0  0  0  0999 V2000
    7.0880   20.9790   19.4070 C   0  0  0  0  0  0  0  0  0  0  0  0
    6.2590   19.9060   19.1010 C   0  0  0  0  0  0  0  0  0  0  0  0
    4.9790   20.1420   18.6020 C   0  0  0  0  0  0  0  0  0  0  0  0
    4.2030   19.0390   18.2750 O   0  0  0  0  0  0  0  0  0  0  0  0
    3.0440   19.0410   17.3710 C   0  0  1  0  0  0  0  0  0  0  0  0
    4.5170   21.4500   18.4290 C   0  0  0  0  0  0  0  0  0  0  0  0
    6.6390   22.2840   19.2230 C   0  0  0  0  0  0  0  0  0  0  0  0
    5.3540   22.5180   18.7390 C   0  0  0  0  0  0  0  0  0  0  0  0
    3.4740   19.2100   15.9100 C   0  0  0  0  0  0  0  0  0  0  0  0
    4.3240   20.0560   15.6280 O   0  0  0  0  0  0  0  0  0  0  0  0
    2.1750   17.7930   17.6250 C   0  0  2  0  0  0  0  0  0  0  0  0
    2.8750   18.4850   14.9310 N   0  0  0  0  0  0  0  0  0  0  0  0
    1.0910   17.6410   16.5370 C   0  0  2  0  0  0  0  0  0  0  0  0
    1.8780   17.4230   15.2150 C   0  0  1  0  0  0  0  0  0  0  0  0
    1.6150   17.8570   18.9240 O   0  0  0  0  0  0  0  0  0  0  0  0
    3.2890   18.6410   13.5220 C   0  0  0  0  0  0  0  0  0  0  0  0
    0.2560   18.8660   16.4270 N   0  0  0  0  0  0  0  0  0  0  0  0
    0.1990   16.4160   16.8590 C   0  0  0  0  0  0  0  0  0  0  0  0
   -0.9800   16.3530   16.0760 O   0  0  0  0  0  0  0  0  0  0  0  0
    0.9840   17.2510   14.0680 O   0  0  0  0  0  0  0  0  0  0  0  0
    0.8710   15.9080   13.5050 C   0  0  0  0  0  0  0  0  0  0  0  0
    2.1780   15.3710   12.9600 C   0  0  0  0  0  0  0  0  0  0  0  0
    2.9370   14.7100   13.6460 O   0  0  0  0  0  0  0  0  0  0  0  0
    2.4990   15.6920   11.6580 N   0  0  0  0  0  0  0  0  0  0  0  0
    3.5830   15.1400   10.9270 C   0  0  0  0  0  0  0  0  0  0  0  0
    4.3270   15.9720   10.0900 C   0  0  0  0  0  0  0  0  0  0  0  0
    5.3790   15.4130    9.3680 C   0  0  0  0  0  0  0  0  0  0  0  0
    3.8740   13.7740   11.0230 C   0  0  0  0  0  0  0  0  0  0  0  0
    4.9430   13.2440   10.3080 C   0  0  0  0  0  0  0  0  0  0  0  0
    6.1100   16.1910    8.5230 O   0  0  0  0  0  0  0  0  0  0  0  0
    5.7030   14.0620    9.4770 C   0  0  0  0  0  0  0  0  0  0  0  0
    8.0670   20.8050   19.7730 H   0  0  0  0  0  0  0  0  0  0  0  0
    6.6050   18.9160   19.2360 H   0  0  0  0  0  0  0  0  0  0  0  0
    2.4330   19.8940   17.6310 H   0  0  0  0  0  0  0  0  0  0  0  0
    3.5430   21.6420   18.0620 H   0  0  0  0  0  0  0  0  0  0  0  0
    7.2760   23.0980   19.4510 H   0  0  0  0  0  0  0  0  0  0  0  0
    5.0140   23.5120   18.6010 H   0  0  0  0  0  0  0  0  0  0  0  0
    2.8320   16.9230   17.5880 H   0  0  0  0  0  0  0  0  0  0  0  0
    2.4270   16.4980   15.3250 H   0  0  0  0  0  0  0  0  0  0  0  0
    2.2470   18.2870   19.5080 H   0  0  0  0  0  0  0  0  0  0  0  0
    4.0070   19.4340   13.3690 H   0  0  0  0  0  0  0  0  0  0  0  0
    3.7380   17.7320   13.1480 H   0  0  0  0  0  0  0  0  0  0  0  0
    2.4470   18.8760   12.8860 H   0  0  0  0  0  0  0  0  0  0  0  0
    0.8400   19.6580   16.2000 H   0  0  0  0  0  0  0  0  0  0  0  0
   -0.4140   18.7350   15.6810 H   0  0  0  0  0  0  0  0  0  0  0  0
    0.7740   15.5080   16.7020 H   0  0  0  0  0  0  0  0  0  0  0  0
   -0.1120   16.4460   17.9030 H   0  0  0  0  0  0  0  0  0  0  0  0
   -1.5230   17.1160   16.2940 H   0  0  0  0  0  0  0  0  0  0  0  0
    0.4890   15.2420   14.2650 H   0  0  0  0  0  0  0  0  0  0  0  0
    0.1270   15.9480   12.7210 H   0  0  0  0  0  0  0  0  0  0  0  0
    1.8960   16.3780   11.1780 H   0  0  0  0  0  0  0  0  0  0  0  0
    4.0950   17.0020   10.0030 H   0  0  0  0  0  0  0  0  0  0  0  0
    3.2800   13.1420   11.6290 H   0  0  0  0  0  0  0  0  0  0  0  0
    5.1760   12.2140   10.3920 H   0  0  0  0  0  0  0  0  0  0  0  0
    5.8160   17.1220    8.5550 H   0  0  0  0  0  0  0  0  0  0  0  0
    6.5120   13.6590    8.9260 H   0  0  0  0  0  0  0  0  0  0  0  0
  1  2  1  0  0  0  0
  1  7  2  0  0  0  0
  1 32  1  0  0  0  0
  2  3  2  0  0  0  0
  2 33  1  0  0  0  0
  3  4  1  0  0  0  0
  3  6  1  0  0  0  0
  4  5  1  0  0  0  0
  5  9  1  0  0  0  0
  5 11  1  0  0  0  0
  5 34  1  0  0  0  0
  6  8  2  0  0  0  0
  6 35  1  0  0  0  0
  7  8  1  0  0  0  0
  7 36  1  0  0  0  0
  8 37  1  0  0  0  0
  9 10  2  0  0  0  0
  9 12  1  0  0  0  0
 11 13  1  0  0  0  0
 11 15  1  0  0  0  0
 11 38  1  0  0  0  0
 12 14  1  0  0  0  0
 12 16  1  0  0  0  0
 13 14  1  0  0  0  0
 13 17  1  0  0  0  0
 13 18  1  0  0  0  0
 14 20  1  0  0  0  0
 14 39  1  0  0  0  0
 15 40  1  0  0  0  0
 16 41  1  0  0  0  0
 16 42  1  0  0  0  0
 16 43  1  0  0  0  0
 17 44  1  0  0  0  0
 17 45  1  0  0  0  0
 18 19  1  0  0  0  0
 18 46  1  0  0  0  0
 18 47  1  0  0  0  0
 19 48  1  0  0  0  0
 20 21  1  0  0  0  0
 21 22  1  0  0  0  0
 21 49  1  0  0  0  0
 21 50  1  0  0  0  0
 22 23  2  0  0  0  0
 22 24  1  0  0  0  0
 24 25  1  0  0  0  0
 24 51  1  0  0  0  0
 25 26  2  0  0  0  0
 25 28  1  0  0  0  0
 26 27  1  0  0  0  0
 26 52  1  0  0  0  0
 27 30  1  0  0  0  0
 27 31  2  0  0  0  0
 28 29  2  0  0  0  0
 28 53  1  0  0  0  0
 29 31  1  0  0  0  0
 29 54  1  0  0  0  0
 30 55  1  0  0  0  0
 31 56  1  0  0  0  0
M  END

$$$$
389
  MOE2022           3D

 58 62  0  0  1  0  0  0  0  0999 V2000
    5.5200   15.2250    9.6590 C   0  0  0  0  0  0  0  0  0  0  0  0
    5.1860   15.9810    8.5430 C   0  0  0  0  0  0  0  0  0  0  0  0
    4.5650   15.0500   10.6530 C   0  0  0  0  0  0  0  0  0  0  0  0
    6.0980   16.1550    7.5760 F   0  0  0  0  0  0  0  0  0  0  0  0
    3.2930   15.6390   10.5390 C   0  0  0  0  0  0  0  0  0  0  0  0
    2.3100   15.4970   11.5920 C   0  0  0  0  0  0  0  0  0  0  0  0
    3.9350   16.5620    8.3880 C   0  0  0  0  0  0  0  0  0  0  0  0
    2.9890   16.3850    9.3890 C   0  0  0  0  0  0  0  0  0  0  0  0
    2.6430   15.5920   12.9310 N   0  0  0  0  0  0  0  0  0  0  0  0
    0.9520   15.3030   11.5450 C   0  0  0  0  0  0  0  0  0  0  0  0
    1.5160   15.4760   13.6960 C   0  0  0  0  0  0  0  0  0  0  0  0
    1.5600   15.5580   15.1100 N   0  0  0  0  0  0  0  0  0  0  0  0
    0.4560   15.2820   12.8500 C   0  0  0  0  0  0  0  0  0  0  0  0
    0.4030   16.1570   15.7660 C   0  0  0  0  0  0  0  0  0  0  0  0
    2.7080   16.2060   15.7450 C   0  0  0  0  0  0  0  0  0  0  0  0
    2.3300   17.6670   16.0770 C   0  0  2  0  0  0  0  0  0  0  0  0
    3.0570   18.1120   17.3700 C   0  0  1  0  0  0  0  0  0  0  0  0
    0.7920   17.5630   16.2490 C   0  0  2  0  0  0  0  0  0  0  0  0
    2.7650   18.5800   14.9060 C   0  0  0  0  0  0  0  0  0  0  0  0
    3.8650   18.3310   14.3630 O   0  5  0  0  0  0  0  0  0  0  0  0
    2.9540   19.5520   17.5710 O   0  0  0  0  0  0  0  0  0  0  0  0
    3.9780   20.3470   18.0630 C   0  0  0  0  0  0  0  0  0  0  0  0
    3.9240   21.7100   17.7820 C   0  0  0  0  0  0  0  0  0  0  0  0
    4.9360   22.5470   18.2430 C   0  0  0  0  0  0  0  0  0  0  0  0
    5.0300   19.8190   18.8170 C   0  0  0  0  0  0  0  0  0  0  0  0
    6.0390   20.6620   19.2730 C   0  0  0  0  0  0  0  0  0  0  0  0
    5.9950   22.0240   18.9840 C   0  0  0  0  0  0  0  0  0  0  0  0
    2.5790   17.3490   18.6340 C   0  0  0  0  0  0  0  0  0  0  0  0
    2.0390   19.5490   14.5920 O   0  0  0  0  0  0  0  0  0  0  0  0
    1.1230   17.1140   18.6970 N   0  0  0  0  0  0  0  0  0  0  0  0
    0.6260   16.1350   19.5480 C   0  0  0  0  0  0  0  0  0  0  0  0
    1.3120   15.6000   20.4230 O   0  0  0  0  0  0  0  0  0  0  0  0
    0.3180   17.8300   17.6870 C   0  0  0  0  0  0  0  0  0  0  0  0
   -0.6780   15.7650   19.3910 N   0  0  0  0  0  0  0  0  0  0  0  0
    6.4800   14.7860    9.7460 H   0  0  0  0  0  0  0  0  0  0  0  0
    4.7950   14.4600   11.5020 H   0  0  0  0  0  0  0  0  0  0  0  0
    3.7080   17.1310    7.5240 H   0  0  0  0  0  0  0  0  0  0  0  0
    2.0310   16.8270    9.2900 H   0  0  0  0  0  0  0  0  0  0  0  0
    3.5870   15.7750   13.3060 H   0  0  0  0  0  0  0  0  0  0  0  0
    0.3810   15.1920   10.6600 H   0  0  0  0  0  0  0  0  0  0  0  0
   -0.5530   15.1450   13.1370 H   0  0  0  0  0  0  0  0  0  0  0  0
   -0.4660   16.1980   15.1250 H   0  0  0  0  0  0  0  0  0  0  0  0
    0.1260   15.5320   16.6040 H   0  0  0  0  0  0  0  0  0  0  0  0
    2.9170   15.6630   16.6540 H   0  0  0  0  0  0  0  0  0  0  0  0
    3.6200   16.1100   15.1760 H   0  0  0  0  0  0  0  0  0  0  0  0
    4.1140   17.9210   17.2170 H   0  0  0  0  0  0  0  0  0  0  0  0
    0.2640   18.2690   15.6080 H   0  0  0  0  0  0  0  0  0  0  0  0
    3.1180   22.1030   17.2160 H   0  0  0  0  0  0  0  0  0  0  0  0
    4.9030   23.5840   18.0270 H   0  0  0  0  0  0  0  0  0  0  0  0
    5.0650   18.7890   19.0490 H   0  0  0  0  0  0  0  0  0  0  0  0
    6.8430   20.2670   19.8390 H   0  0  0  0  0  0  0  0  0  0  0  0
    6.7680   22.6620   19.3260 H   0  0  0  0  0  0  0  0  0  0  0  0
    3.0790   16.3920   18.6670 H   0  0  0  0  0  0  0  0  0  0  0  0
    2.9050   17.8670   19.5240 H   0  0  0  0  0  0  0  0  0  0  0  0
    0.3930   18.8920   17.8790 H   0  0  0  0  0  0  0  0  0  0  0  0
   -0.7380   17.6160   17.7640 H   0  0  0  0  0  0  0  0  0  0  0  0
   -1.2220   16.1430   18.6030 H   0  0  0  0  0  0  0  0  0  0  0  0
   -1.0460   14.9570   19.9110 H   0  0  0  0  0  0  0  0  0  0  0  0
  1  2  2  0  0  0  0
  1  3  1  0  0  0  0
  1 35  1  0  0  0  0
  2  4  1  0  0  0  0
  2  7  1  0  0  0  0
  3  5  2  0  0  0  0
  3 36  1  0  0  0  0
  5  6  1  0  0  0  0
  5  8  1  0  0  0  0
  6  9  1  0  0  0  0
  6 10  2  0  0  0  0
  7  8  2  0  0  0  0
  7 37  1  0  0  0  0
  8 38  1  0  0  0  0
  9 11  1  0  0  0  0
  9 39  1  0  0  0  0
 10 13  1  0  0  0  0
 10 40  1  0  0  0  0
 11 12  1  0  0  0  0
 11 13  2  0  0  0  0
 12 14  1  0  0  0  0
 12 15  1  0  0  0  0
 13 41  1  0  0  0  0
 14 18  1  0  0  0  0
 14 42  1  0  0  0  0
 14 43  1  0  0  0  0
 15 16  1  0  0  0  0
 15 44  1  0  0  0  0
 15 45  1  0  0  0  0
 16 17  1  0  0  0  0
 16 18  1  0  0  0  0
 16 19  1  0  0  0  0
 17 21  1  0  0  0  0
 17 28  1  0  0  0  0
 17 46  1  0  0  0  0
 18 33  1  0  0  0  0
 18 47  1  0  0  0  0
 19 20  1  0  0  0  0
 19 29  2  0  0  0  0
 21 22  1  0  0  0  0
 22 23  2  0  0  0  0
 22 25  1  0  0  0  0
 23 24  1  0  0  0  0
 23 48  1  0  0  0  0
 24 27  2  0  0  0  0
 24 49  1  0  0  0  0
 25 26  2  0  0  0  0
 25 50  1  0  0  0  0
 26 27  1  0  0  0  0
 26 51  1  0  0  0  0
 27 52  1  0  0  0  0
 28 30  1  0  0  0  0
 28 53  1  0  0  0  0
 28 54  1  0  0  0  0
 30 31  1  0  0  0  0
 30 33  1  0  0  0  0
 31 32  2  0  0  0  0
 31 34  1  0  0  0  0
 33 55  1  0  0  0  0
 33 56  1  0  0  0  0
 34 57  1  0  0  0  0
 34 58  1  0  0  0  0
M  CHG  1  20  -1
M  END

$$$$
401
  MOE2022           3D

 66 68  0  0  1  0  0  0  0  0999 V2000
    5.8830   14.7490    9.9700 C   0  0  0  0  0  0  0  0  0  0  0  0
    5.7460   15.8960    9.1990 C   0  0  0  0  0  0  0  0  0  0  0  0
    4.6280   16.7040    9.3820 C   0  0  0  0  0  0  0  0  0  0  0  0
    4.9040   14.4130   10.9030 C   0  0  0  0  0  0  0  0  0  0  0  0
    3.7820   15.2270   11.0900 C   0  0  0  0  0  0  0  0  0  0  0  0
    4.4750   17.8230    8.6180 O   0  0  0  0  0  0  0  0  0  0  0  0
    3.6530   16.3870   10.3240 C   0  0  0  0  0  0  0  0  0  0  0  0
    2.7180   14.8250   12.1030 C   0  0  1  0  0  0  0  0  0  0  0  0
    3.1980   14.8790   13.4880 N   0  0  0  0  0  0  0  0  0  0  0  0
    1.5580   15.6810   12.0440 O   0  0  0  0  0  0  0  0  0  0  0  0
    2.0620   15.3590   14.2760 C   0  0  2  0  0  0  0  0  0  0  0  0
    1.3000   16.2680   13.3220 C   0  0  2  0  0  0  0  0  0  0  0  0
   -0.1750   16.4170   13.6400 C   0  0  0  0  0  0  0  0  0  0  0  0
   -0.8880   15.3900   13.6370 O   0  0  0  0  0  0  0  0  0  0  0  0
   -0.5730   17.5600   13.9550 O   0  5  0  0  0  0  0  0  0  0  0  0
    2.4130   16.0410   15.5850 C   0  0  0  0  0  0  0  0  0  0  0  0
    3.5260   16.4060   15.9070 O   0  0  0  0  0  0  0  0  0  0  0  0
    1.3500   16.2770   16.3800 O   0  0  0  0  0  0  0  0  0  0  0  0
    1.2560   17.0760   17.5040 C   0  0  0  0  0  0  0  0  0  0  0  0
    0.7100   16.3050   18.6870 C   0  0  0  0  0  0  0  0  0  0  0  0
    1.5460   18.3930   17.5110 C   0  0  0  0  0  0  0  0  0  0  0  0
    2.0120   19.2200   16.3170 C   0  0  0  0  0  0  0  0  0  0  0  0
    3.1440   20.2640   16.5790 C   0  0  1  0  0  0  0  0  0  0  0  0
    1.7500   15.6760   19.4730 O   0  0  0  0  0  0  0  0  0  0  0  0
    2.4940   16.5390   20.3540 C   0  0  0  0  0  0  0  0  0  0  0  0
    4.2510   19.6740   17.5010 C   0  0  0  0  0  0  0  0  0  0  0  0
    3.7270   20.6410   15.1970 C   0  0  0  0  0  0  0  0  0  0  0  0
    2.5260   21.5180   17.2400 C   0  0  0  0  0  0  0  0  0  0  0  0
    5.2780   20.6720   18.0970 C   0  0  1  0  0  0  0  0  0  0  0  0
    3.5670   22.5600   17.6730 C   0  0  0  0  0  0  0  0  0  0  0  0
    6.2360   21.0230   17.1160 O   0  0  0  0  0  0  0  0  0  0  0  0
    4.5830   21.9420   18.6380 C   0  0  0  0  0  0  0  0  0  0  0  0
    6.0260   19.9570   19.2470 C   0  0  0  0  0  0  0  0  0  0  0  0
    6.8850   20.8080   19.9870 O   0  0  0  0  0  0  0  0  0  0  0  0
    6.7290   14.1240    9.8450 H   0  0  0  0  0  0  0  0  0  0  0  0
    6.4760   16.1530    8.4760 H   0  0  0  0  0  0  0  0  0  0  0  0
    5.0150   13.5290   11.4750 H   0  0  0  0  0  0  0  0  0  0  0  0
    3.6360   18.2730    8.8360 H   0  0  0  0  0  0  0  0  0  0  0  0
    2.8160   17.0260   10.4410 H   0  0  0  0  0  0  0  0  0  0  0  0
    2.3760   13.8180   11.9000 H   0  0  0  0  0  0  0  0  0  0  0  0
    3.9340   15.5670   13.5360 H   0  0  0  0  0  0  0  0  0  0  0  0
    1.4280   14.5080   14.4910 H   0  0  0  0  0  0  0  0  0  0  0  0
    1.7700   17.2420   13.3150 H   0  0  0  0  0  0  0  0  0  0  0  0
    0.1400   16.9540   19.3340 H   0  0  0  0  0  0  0  0  0  0  0  0
    0.0350   15.5320   18.3460 H   0  0  0  0  0  0  0  0  0  0  0  0
    1.4120   18.9540   18.3960 H   0  0  0  0  0  0  0  0  0  0  0  0
    2.3090   18.5760   15.5080 H   0  0  0  0  0  0  0  0  0  0  0  0
    1.1480   19.7300   15.9110 H   0  0  0  0  0  0  0  0  0  0  0  0
    3.2110   15.9550   20.9290 H   0  0  0  0  0  0  0  0  0  0  0  0
    3.0310   17.2940   19.7800 H   0  0  0  0  0  0  0  0  0  0  0  0
    1.8090   17.0240   21.0460 H   0  0  0  0  0  0  0  0  0  0  0  0
    3.7670   19.1960   18.3500 H   0  0  0  0  0  0  0  0  0  0  0  0
    4.7820   18.8900   16.9600 H   0  0  0  0  0  0  0  0  0  0  0  0
    4.5010   21.4000   15.2750 H   0  0  0  0  0  0  0  0  0  0  0  0
    4.1590   19.7590   14.7230 H   0  0  0  0  0  0  0  0  0  0  0  0
    2.9350   21.0260   14.5530 H   0  0  0  0  0  0  0  0  0  0  0  0
    1.8260   21.9890   16.5480 H   0  0  0  0  0  0  0  0  0  0  0  0
    1.9610   21.2190   18.1230 H   0  0  0  0  0  0  0  0  0  0  0  0
    4.0830   22.9660   16.8040 H   0  0  0  0  0  0  0  0  0  0  0  0
    3.0560   23.3830   18.1750 H   0  0  0  0  0  0  0  0  0  0  0  0
    6.8020   21.7060   17.4810 H   0  0  0  0  0  0  0  0  0  0  0  0
    4.0550   21.6870   19.5550 H   0  0  0  0  0  0  0  0  0  0  0  0
    5.3330   22.6950   18.8840 H   0  0  0  0  0  0  0  0  0  0  0  0
    5.2910   19.5460   19.9400 H   0  0  0  0  0  0  0  0  0  0  0  0
    6.6100   19.1320   18.8410 H   0  0  0  0  0  0  0  0  0  0  0  0
    7.6770   20.9750   19.4670 H   0  0  0  0  0  0  0  0  0  0  0  0
  1  2  1  0  0  0  0
  1  4  2  0  0  0  0
  1 35  1  0  0  0  0
  2  3  2  0  0  0  0
  2 36  1  0  0  0  0
  3  6  1  0  0  0  0
  3  7  1  0  0  0  0
  4  5  1  0  0  0  0
  4 37  1  0  0  0  0
  5  7  2  0  0  0  0
  5  8  1  0  0  0  0
  6 38  1  0  0  0  0
  7 39  1  0  0  0  0
  8  9  1  0  0  0  0
  8 10  1  0  0  0  0
  8 40  1  0  0  0  0
  9 11  1  0  0  0  0
  9 41  1  0  0  0  0
 10 12  1  0  0  0  0
 11 12  1  0  0  0  0
 11 16  1  0  0  0  0
 11 42  1  0  0  0  0
 12 13  1  0  0  0  0
 12 43  1  0  0  0  0
 13 14  2  0  0  0  0
 13 15  1  0  0  0  0
 16 17  2  0  0  0  0
 16 18  1  0  0  0  0
 18 19  1  0  0  0  0
 19 20  1  0  0  0  0
 19 21  2  0  0  0  0
 20 24  1  0  0  0  0
 20 44  1  0  0  0  0
 20 45  1  0  0  0  0
 21 22  1  0  0  0  0
 21 46  1  0  0  0  0
 22 23  1  0  0  0  0
 22 47  1  0  0  0  0
 22 48  1  0  0  0  0
 23 26  1  0  0  0  0
 23 27  1  0  0  0  0
 23 28  1  0  0  0  0
 24 25  1  0  0  0  0
 25 49  1  0  0  0  0
 25 50  1  0  0  0  0
 25 51  1  0  0  0  0
 26 29  1  0  0  0  0
 26 52  1  0  0  0  0
 26 53  1  0  0  0  0
 27 54  1  0  0  0  0
 27 55  1  0  0  0  0
 27 56  1  0  0  0  0
 28 30  1  0  0  0  0
 28 57  1  0  0  0  0
 28 58  1  0  0  0  0
 29 31  1  0  0  0  0
 29 32  1  0  0  0  0
 29 33  1  0  0  0  0
 30 32  1  0  0  0  0
 30 59  1  0  0  0  0
 30 60  1  0  0  0  0
 31 61  1  0  0  0  0
 32 62  1  0  0  0  0
 32 63  1  0  0  0  0
 33 34  1  0  0  0  0
 33 64  1  0  0  0  0
 33 65  1  0  0  0  0
 34 66  1  0  0  0  0
M  CHG  1  15  -1
M  END

$$$$
404
  MOE2022           3D

 60 64  0  0  1  0  0  0  0  0999 V2000
    6.8060   20.8640   18.1830 C   0  0  0  0  0  0  0  0  0  0  0  0
    6.2300   21.1400   16.9510 C   0  0  0  0  0  0  0  0  0  0  0  0
    6.2040   19.9440   19.0320 C   0  0  0  0  0  0  0  0  0  0  0  0
    5.0350   19.2910   18.6460 C   0  0  0  0  0  0  0  0  0  0  0  0
    5.0590   20.4840   16.5730 C   0  0  0  0  0  0  0  0  0  0  0  0
    4.5360   20.8340   15.3610 O   0  0  0  0  0  0  0  0  0  0  0  0
    4.4430   19.5240   17.4000 C   0  0  0  0  0  0  0  0  0  0  0  0
    3.1340   18.8000   17.0100 C   0  0  2  0  0  0  0  0  0  0  0  0
    2.8990   17.4710   17.6380 N   0  0  0  0  0  0  0  0  0  0  0  0
    2.9940   18.5500   15.5670 N   0  0  0  0  0  0  0  0  0  0  0  0
    2.2000   16.6740   16.6080 C   0  0  2  0  0  0  0  0  0  0  0  0
    2.5060   17.4240   15.3480 C   0  0  0  0  0  0  0  0  0  0  0  0
    2.1660   16.9060   13.9560 C   0  0  2  0  0  0  0  0  0  0  0  0
    0.6770   16.5500   16.8490 C   0  0  0  0  0  0  0  0  0  0  0  0
    2.6910   15.5140   13.5810 C   0  0  0  0  0  0  0  0  0  0  0  0
    2.1580   17.5600   18.9190 C   0  0  0  0  0  0  0  0  0  0  0  0
    2.6390   17.7850   12.7930 C   0  0  0  0  0  0  0  0  0  0  0  0
    2.6650   15.5120   12.0410 C   0  0  1  0  0  0  0  0  0  0  0  0
    1.3980   16.3490   19.2230 N   0  0  0  0  0  0  0  0  0  0  0  0
    2.7610   16.9090   11.6540 O   0  0  0  0  0  0  0  0  0  0  0  0
    3.7010   14.6570   11.3250 C   0  0  0  0  0  0  0  0  0  0  0  0
    1.2590   15.9450   20.5540 C   0  0  0  0  0  0  0  0  0  0  0  0
    3.2750   13.4350   10.9290 O   0  0  0  0  0  0  0  0  0  0  0  0
    0.3490   16.0280   18.2550 C   0  0  0  0  0  0  0  0  0  0  0  0
    0.2230   15.3030   20.8780 O   0  0  0  0  0  0  0  0  0  0  0  0
    4.8230   15.0350   11.0690 O   0  0  0  0  0  0  0  0  0  0  0  0
    3.9750   12.4630   10.2200 C   0  0  0  0  0  0  0  0  0  0  0  0
    5.3300   12.2020   10.4450 C   0  0  0  0  0  0  0  0  0  0  0  0
    3.2510   11.7330    9.2810 C   0  0  0  0  0  0  0  0  0  0  0  0
    5.9660   11.2020    9.7110 C   0  0  0  0  0  0  0  0  0  0  0  0
    7.4250   10.8870    9.9580 C   0  0  0  0  0  0  0  0  0  0  0  0
    5.2430   10.4740    8.7660 C   0  0  0  0  0  0  0  0  0  0  0  0
    3.8910   10.7380    8.5520 C   0  0  0  0  0  0  0  0  0  0  0  0
    2.1790   16.2320   21.3630 O   0  5  0  0  0  0  0  0  0  0  0  0
    7.6980   21.3550   18.4770 H   0  0  0  0  0  0  0  0  0  0  0  0
    6.6760   21.8500   16.3030 H   0  0  0  0  0  0  0  0  0  0  0  0
    6.6380   19.7380   19.9760 H   0  0  0  0  0  0  0  0  0  0  0  0
    4.6060   18.6030   19.3200 H   0  0  0  0  0  0  0  0  0  0  0  0
    3.7650   20.2610   15.1670 H   0  0  0  0  0  0  0  0  0  0  0  0
    2.3100   19.4480   17.2830 H   0  0  0  0  0  0  0  0  0  0  0  0
    2.6540   15.6950   16.5780 H   0  0  0  0  0  0  0  0  0  0  0  0
    1.0870   16.8570   13.8820 H   0  0  0  0  0  0  0  0  0  0  0  0
    0.2300   17.5390   16.7450 H   0  0  0  0  0  0  0  0  0  0  0  0
    0.2300   15.8890   16.1060 H   0  0  0  0  0  0  0  0  0  0  0  0
    3.7110   15.4030   13.9370 H   0  0  0  0  0  0  0  0  0  0  0  0
    2.0750   14.7130   13.9930 H   0  0  0  0  0  0  0  0  0  0  0  0
    2.8490   17.7760   19.7170 H   0  0  0  0  0  0  0  0  0  0  0  0
    1.4730   18.3970   18.8810 H   0  0  0  0  0  0  0  0  0  0  0  0
    1.9330   18.5860   12.5700 H   0  0  0  0  0  0  0  0  0  0  0  0
    3.6260   18.2030   12.9920 H   0  0  0  0  0  0  0  0  0  0  0  0
    1.6810   15.1820   11.7330 H   0  0  0  0  0  0  0  0  0  0  0  0
    0.2110   14.9570   18.2280 H   0  0  0  0  0  0  0  0  0  0  0  0
   -0.5990   16.4340   18.5830 H   0  0  0  0  0  0  0  0  0  0  0  0
    5.8700   12.7460   11.1760 H   0  0  0  0  0  0  0  0  0  0  0  0
    2.2230   11.9350    9.1240 H   0  0  0  0  0  0  0  0  0  0  0  0
    7.8720   10.3820    9.1020 H   0  0  0  0  0  0  0  0  0  0  0  0
    7.9920   11.7990   10.1480 H   0  0  0  0  0  0  0  0  0  0  0  0
    7.5230   10.2300   10.8220 H   0  0  0  0  0  0  0  0  0  0  0  0
    5.7200    9.7090    8.2090 H   0  0  0  0  0  0  0  0  0  0  0  0
    3.3510   10.1780    7.8340 H   0  0  0  0  0  0  0  0  0  0  0  0
  1  2  1  0  0  0  0
  1  3  2  0  0  0  0
  1 35  1  0  0  0  0
  2  5  2  0  0  0  0
  2 36  1  0  0  0  0
  3  4  1  0  0  0  0
  3 37  1  0  0  0  0
  4  7  2  0  0  0  0
  4 38  1  0  0  0  0
  5  6  1  0  0  0  0
  5  7  1  0  0  0  0
  6 39  1  0  0  0  0
  7  8  1  0  0  0  0
  8  9  1  0  0  0  0
  8 10  1  0  0  0  0
  8 40  1  0  0  0  0
  9 11  1  0  0  0  0
  9 16  1  0  0  0  0
 10 12  2  0  0  0  0
 11 12  1  0  0  0  0
 11 14  1  0  0  0  0
 11 41  1  0  0  0  0
 12 13  1  0  0  0  0
 13 15  1  0  0  0  0
 13 17  1  0  0  0  0
 13 42  1  0  0  0  0
 14 24  1  0  0  0  0
 14 43  1  0  0  0  0
 14 44  1  0  0  0  0
 15 18  1  0  0  0  0
 15 45  1  0  0  0  0
 15 46  1  0  0  0  0
 16 19  1  0  0  0  0
 16 47  1  0  0  0  0
 16 48  1  0  0  0  0
 17 20  1  0  0  0  0
 17 49  1  0  0  0  0
 17 50  1  0  0  0  0
 18 20  1  0  0  0  0
 18 21  1  0  0  0  0
 18 51  1  0  0  0  0
 19 22  1  0  0  0  0
 19 24  1  0  0  0  0
 21 23  1  0  0  0  0
 21 26  2  0  0  0  0
 22 25  2  0  0  0  0
 22 34  1  0  0  0  0
 23 27  1  0  0  0  0
 24 52  1  0  0  0  0
 24 53  1  0  0  0  0
 27 28  1  0  0  0  0
 27 29  2  0  0  0  0
 28 30  2  0  0  0  0
 28 54  1  0  0  0  0
 29 33  1  0  0  0  0
 29 55  1  0  0  0  0
 30 31  1  0  0  0  0
 30 32  1  0  0  0  0
 31 56  1  0  0  0  0
 31 57  1  0  0  0  0
 31 58  1  0  0  0  0
 32 33  2  0  0  0  0
 32 59  1  0  0  0  0
 33 60  1  0  0  0  0
M  CHG  1  34  -1
M  END

$$$$
500
  MOE2022           3D

 63 66  0  0  1  0  0  0  0  0999 V2000
    2.2930   16.3490   20.6870 C   0  0  0  0  0  0  0  0  0  0  0  0
    0.9870   15.9210   20.8740 C   0  0  0  0  0  0  0  0  0  0  0  0
    2.6860   16.8620   19.4580 C   0  0  0  0  0  0  0  0  0  0  0  0
    0.0770   15.9820   19.8240 C   0  0  0  0  0  0  0  0  0  0  0  0
    0.4740   16.4880   18.5900 C   0  0  0  0  0  0  0  0  0  0  0  0
    1.7790   16.9400   18.3980 C   0  0  0  0  0  0  0  0  0  0  0  0
    2.1870   17.4970   17.0400 C   0  0  1  0  0  0  0  0  0  0  0  0
    3.2000   18.5480   17.1540 N   0  0  0  0  0  0  0  0  0  0  0  0
    2.6790   16.4140   16.0980 C   0  0  0  0  0  0  0  0  0  0  0  0
    2.9390   19.8260   17.5740 C   0  0  0  0  0  0  0  0  0  0  0  0
    2.0810   16.3570   14.9020 N   0  0  0  0  0  0  0  0  0  0  0  0
    1.7880   20.2460   17.4720 O   0  0  0  0  0  0  0  0  0  0  0  0
    4.0600   20.5970   18.1160 C   0  0  0  0  0  0  0  0  0  0  0  0
    3.6530   15.7140   16.3720 O   0  0  0  0  0  0  0  0  0  0  0  0
    2.5660   15.5680   13.7800 C   0  0  1  0  0  0  0  0  0  0  0  0
    1.6240   14.4350   13.4040 C   0  0  0  0  0  0  0  0  0  0  0  0
    2.6980   16.4000   12.5080 C   0  0  0  0  0  0  0  0  0  0  0  0
    5.1780   19.9270   18.6490 C   0  0  0  0  0  0  0  0  0  0  0  0
    1.4750   14.5320   11.8820 C   0  0  0  0  0  0  0  0  0  0  0  0
    4.0680   22.0100   18.1360 C   0  0  0  0  0  0  0  0  0  0  0  0
    2.4550   15.5100   11.3740 N   0  0  0  0  0  0  0  0  0  0  0  0
    6.2570   20.6430   19.1450 C   0  0  0  0  0  0  0  0  0  0  0  0
    3.0030   22.7250   17.6700 O   0  0  0  0  0  0  0  0  0  0  0  0
    3.6310   15.1090   10.7020 C   0  0  0  0  0  0  0  0  0  0  0  0
    6.2480   22.0390   19.1280 C   0  0  0  0  0  0  0  0  0  0  0  0
    7.3160   22.7240   19.6110 O   0  0  0  0  0  0  0  0  0  0  0  0
    7.3370   19.9640   19.6540 O   0  0  0  0  0  0  0  0  0  0  0  0
    5.1530   22.7330   18.6280 C   0  0  0  0  0  0  0  0  0  0  0  0
    4.3440   16.0600    9.9370 C   0  0  0  0  0  0  0  0  0  0  0  0
    4.1070   13.7910   10.8070 C   0  0  0  0  0  0  0  0  0  0  0  0
    3.8870   17.4320    9.7710 C   0  0  0  0  0  0  0  0  0  0  0  0
    5.5260   15.6600    9.3100 C   0  0  0  0  0  0  0  0  0  0  0  0
    4.3820   18.3330   10.5020 O   0  0  0  0  0  0  0  0  0  0  0  0
    3.0300   17.7030    8.8900 O   0  5  0  0  0  0  0  0  0  0  0  0
    5.2840   13.4190   10.1730 C   0  0  0  0  0  0  0  0  0  0  0  0
    5.8050   12.0030   10.2960 C   0  0  0  0  0  0  0  0  0  0  0  0
    5.9880   14.3590    9.4260 C   0  0  0  0  0  0  0  0  0  0  0  0
    2.9890   16.2870   21.4820 H   0  0  0  0  0  0  0  0  0  0  0  0
    0.6910   15.5540   21.8170 H   0  0  0  0  0  0  0  0  0  0  0  0
    3.6810   17.1940   19.3390 H   0  0  0  0  0  0  0  0  0  0  0  0
   -0.9190   15.6490   19.9640 H   0  0  0  0  0  0  0  0  0  0  0  0
   -0.2260   16.5310   17.7940 H   0  0  0  0  0  0  0  0  0  0  0  0
    1.3050   17.9420   16.5980 H   0  0  0  0  0  0  0  0  0  0  0  0
    4.1740   18.2180   17.2100 H   0  0  0  0  0  0  0  0  0  0  0  0
    1.2980   16.9680   14.7200 H   0  0  0  0  0  0  0  0  0  0  0  0
    3.5490   15.1430   13.9870 H   0  0  0  0  0  0  0  0  0  0  0  0
    2.0720   13.4800   13.6780 H   0  0  0  0  0  0  0  0  0  0  0  0
    0.6510   14.5460   13.8820 H   0  0  0  0  0  0  0  0  0  0  0  0
    1.9590   17.1900   12.4960 H   0  0  0  0  0  0  0  0  0  0  0  0
    3.6650   16.8800   12.4720 H   0  0  0  0  0  0  0  0  0  0  0  0
    5.2030   18.8720   18.6880 H   0  0  0  0  0  0  0  0  0  0  0  0
    1.5410   13.5680   11.3980 H   0  0  0  0  0  0  0  0  0  0  0  0
    0.4840   14.8980   11.6500 H   0  0  0  0  0  0  0  0  0  0  0  0
    2.2700   22.1190   17.4300 H   0  0  0  0  0  0  0  0  0  0  0  0
    8.0160   22.0930   19.8780 H   0  0  0  0  0  0  0  0  0  0  0  0
    7.2270   19.0000   19.5440 H   0  0  0  0  0  0  0  0  0  0  0  0
    5.1440   23.7920   18.6200 H   0  0  0  0  0  0  0  0  0  0  0  0
    3.5830   13.0740   11.3790 H   0  0  0  0  0  0  0  0  0  0  0  0
    6.0720   16.3580    8.7290 H   0  0  0  0  0  0  0  0  0  0  0  0
    6.6720   11.8420    9.6540 H   0  0  0  0  0  0  0  0  0  0  0  0
    6.1060   11.7970   11.3220 H   0  0  0  0  0  0  0  0  0  0  0  0
    5.0340   11.2890   10.0080 H   0  0  0  0  0  0  0  0  0  0  0  0
    6.8760   14.0780    8.9380 H   0  0  0  0  0  0  0  0  0  0  0  0
  1  2  2  0  0  0  0
  1  3  1  0  0  0  0
  1 38  1  0  0  0  0
  2  4  1  0  0  0  0
  2 39  1  0  0  0  0
  3  6  2  0  0  0  0
  3 40  1  0  0  0  0
  4  5  2  0  0  0  0
  4 41  1  0  0  0  0
  5  6  1  0  0  0  0
  5 42  1  0  0  0  0
  6  7  1  0  0  0  0
  7  8  1  0  0  0  0
  7  9  1  0  0  0  0
  7 43  1  0  0  0  0
  8 10  1  0  0  0  0
  8 44  1  0  0  0  0
  9 11  1  0  0  0  0
  9 14  2  0  0  0  0
 10 12  2  0  0  0  0
 10 13  1  0  0  0  0
 11 15  1  0  0  0  0
 11 45  1  0  0  0  0
 13 18  1  0  0  0  0
 13 20  2  0  0  0  0
 15 16  1  0  0  0  0
 15 17  1  0  0  0  0
 15 46  1  0  0  0  0
 16 19  1  0  0  0  0
 16 47  1  0  0  0  0
 16 48  1  0  0  0  0
 17 21  1  0  0  0  0
 17 49  1  0  0  0  0
 17 50  1  0  0  0  0
 18 22  2  0  0  0  0
 18 51  1  0  0  0  0
 19 21  1  0  0  0  0
 19 52  1  0  0  0  0
 19 53  1  0  0  0  0
 20 23  1  0  0  0  0
 20 28  1  0  0  0  0
 21 24  1  0  0  0  0
 22 25  1  0  0  0  0
 22 27  1  0  0  0  0
 23 54  1  0  0  0  0
 24 29  2  0  0  0  0
 24 30  1  0  0  0  0
 25 26  1  0  0  0  0
 25 28  2  0  0  0  0
 26 55  1  0  0  0  0
 27 56  1  0  0  0  0
 28 57  1  0  0  0  0
 29 31  1  0  0  0  0
 29 32  1  0  0  0  0
 30 35  2  0  0  0  0
 30 58  1  0  0  0  0
 31 33  2  0  0  0  0
 31 34  1  0  0  0  0
 32 37  2  0  0  0  0
 32 59  1  0  0  0  0
 35 36  1  0  0  0  0
 35 37  1  0  0  0  0
 36 60  1  0  0  0  0
 36 61  1  0  0  0  0
 36 62  1  0  0  0  0
 37 63  1  0  0  0  0
M  CHG  1  34  -1
M  END

$$$$
518
  MOE2022           3D

 68 73  0  0  1  0  0  0  0  0999 V2000
   -0.4350   16.7580   17.4860 C   0  0  0  0  0  0  0  0  0  0  0  0
    0.5820   16.9240   16.5470 C   0  0  0  0  0  0  0  0  0  0  0  0
   -1.6550   17.4010   17.3140 C   0  0  0  0  0  0  0  0  0  0  0  0
   -1.8380   18.2210   16.2050 C   0  0  0  0  0  0  0  0  0  0  0  0
   -3.0230   18.8740   16.0410 O   0  0  0  0  0  0  0  0  0  0  0  0
    0.3830   17.7280   15.4190 C   0  0  0  0  0  0  0  0  0  0  0  0
   -0.8330   18.3880   15.2560 C   0  0  0  0  0  0  0  0  0  0  0  0
    1.4630   17.8830   14.3610 C   0  0  1  0  0  0  0  0  0  0  0  0
    2.3040   19.0740   14.4760 N   0  0  0  0  0  0  0  0  0  0  0  0
    2.4870   19.7370   15.7840 C   0  0  0  0  0  0  0  0  0  0  0  0
    3.1320   19.4460   13.4300 C   0  0  0  0  0  0  0  0  0  0  0  0
    3.8080   20.4750   13.4790 O   0  0  0  0  0  0  0  0  0  0  0  0
    2.2860   16.7210   14.3040 O   0  0  0  0  0  0  0  0  0  0  0  0
    2.8140   16.3470   13.1030 C   0  0  0  0  0  0  0  0  0  0  0  0
    2.9350   14.9810   12.8760 C   0  0  0  0  0  0  0  0  0  0  0  0
    3.2110   17.2710   12.1210 C   0  0  0  0  0  0  0  0  0  0  0  0
    3.6010   19.1720   16.6460 C   0  0  0  0  0  0  0  0  0  0  0  0
    3.2030   18.6890   12.2720 N   0  0  0  0  0  0  0  0  0  0  0  0
    3.4400   14.5260   11.6630 C   0  0  0  0  0  0  0  0  0  0  0  0
    3.8250   15.4330   10.6770 C   0  0  0  0  0  0  0  0  0  0  0  0
    3.9710   19.8690   17.9370 C   0  0  0  0  0  0  0  0  0  0  0  0
    3.7040   16.8030   10.9040 C   0  0  0  0  0  0  0  0  0  0  0  0
    4.4350   14.9300    9.3870 C   0  0  0  0  0  0  0  0  0  0  0  0
    4.1430   18.1420   16.3530 O   0  0  0  0  0  0  0  0  0  0  0  0
    5.3840   20.4490   17.9560 C   0  0  0  0  0  0  0  0  0  0  0  0
    5.9220   14.6950    9.5130 C   0  0  0  0  0  0  0  0  0  0  0  0
    5.8190   21.5180   17.1380 C   0  0  0  0  0  0  0  0  0  0  0  0
    6.3700   13.6020    9.1050 O   0  0  0  0  0  0  0  0  0  0  0  0
    6.3070   19.8060   18.7800 C   0  0  0  0  0  0  0  0  0  0  0  0
    6.6110   15.6190   10.0010 O   0  5  0  0  0  0  0  0  0  0  0  0
    4.9270   22.4130   16.3740 C   0  0  0  0  0  0  0  0  0  0  0  0
    5.3710   22.9240   15.1430 C   0  0  0  0  0  0  0  0  0  0  0  0
    7.2030   21.7430   17.0210 C   0  0  0  0  0  0  0  0  0  0  0  0
    4.5290   23.7020   14.3540 C   0  0  0  0  0  0  0  0  0  0  0  0
    3.2600   24.0410   14.8080 C   0  0  0  0  0  0  0  0  0  0  0  0
    3.6840   22.8480   16.8570 C   0  0  0  0  0  0  0  0  0  0  0  0
    2.8480   23.6320   16.0710 C   0  0  0  0  0  0  0  0  0  0  0  0
    7.7160   22.6860   15.9540 C   0  0  0  0  0  0  0  0  0  0  0  0
    8.1050   21.0860   17.8480 C   0  0  0  0  0  0  0  0  0  0  0  0
    6.8020   22.6720   14.7240 C   0  0  0  0  0  0  0  0  0  0  0  0
    7.6540   20.1350   18.7470 C   0  0  0  0  0  0  0  0  0  0  0  0
   -0.2760   16.1370   18.3300 H   0  0  0  0  0  0  0  0  0  0  0  0
    1.5060   16.4250   16.6930 H   0  0  0  0  0  0  0  0  0  0  0  0
   -2.4340   17.2710   18.0200 H   0  0  0  0  0  0  0  0  0  0  0  0
   -3.6290   18.6800   16.7830 H   0  0  0  0  0  0  0  0  0  0  0  0
   -0.9990   19.0100   14.4140 H   0  0  0  0  0  0  0  0  0  0  0  0
    0.9460   17.9400   13.4110 H   0  0  0  0  0  0  0  0  0  0  0  0
    2.6630   20.7900   15.6260 H   0  0  0  0  0  0  0  0  0  0  0  0
    1.5670   19.7380   16.3510 H   0  0  0  0  0  0  0  0  0  0  0  0
    2.6430   14.2880   13.6230 H   0  0  0  0  0  0  0  0  0  0  0  0
    3.5560   19.2120   11.4580 H   0  0  0  0  0  0  0  0  0  0  0  0
    3.5410   13.4850   11.4920 H   0  0  0  0  0  0  0  0  0  0  0  0
    3.2230   20.5960   18.1970 H   0  0  0  0  0  0  0  0  0  0  0  0
    3.8780   19.1360   18.7260 H   0  0  0  0  0  0  0  0  0  0  0  0
    4.0130   17.4890   10.1580 H   0  0  0  0  0  0  0  0  0  0  0  0
    3.9420   14.0180    9.0810 H   0  0  0  0  0  0  0  0  0  0  0  0
    4.2560   15.6360    8.5890 H   0  0  0  0  0  0  0  0  0  0  0  0
    5.9860   19.0350   19.4260 H   0  0  0  0  0  0  0  0  0  0  0  0
    4.8580   24.0550   13.4100 H   0  0  0  0  0  0  0  0  0  0  0  0
    2.6180   24.6290   14.2040 H   0  0  0  0  0  0  0  0  0  0  0  0
    3.3730   22.6010   17.8350 H   0  0  0  0  0  0  0  0  0  0  0  0
    1.8990   23.9260   16.4370 H   0  0  0  0  0  0  0  0  0  0  0  0
    7.7500   23.6950   16.3670 H   0  0  0  0  0  0  0  0  0  0  0  0
    8.7210   22.3860   15.6550 H   0  0  0  0  0  0  0  0  0  0  0  0
    9.1410   21.2990   17.7860 H   0  0  0  0  0  0  0  0  0  0  0  0
    6.8610   21.7020   14.2330 H   0  0  0  0  0  0  0  0  0  0  0  0
    7.1300   23.4410   14.0230 H   0  0  0  0  0  0  0  0  0  0  0  0
    8.3400   19.6360   19.3810 H   0  0  0  0  0  0  0  0  0  0  0  0
  1  2  2  0  0  0  0
  1  3  1  0  0  0  0
  1 42  1  0  0  0  0
  2  6  1  0  0  0  0
  2 43  1  0  0  0  0
  3  4  2  0  0  0  0
  3 44  1  0  0  0  0
  4  5  1  0  0  0  0
  4  7  1  0  0  0  0
  5 45  1  0  0  0  0
  6  7  2  0  0  0  0
  6  8  1  0  0  0  0
  7 46  1  0  0  0  0
  8  9  1  0  0  0  0
  8 13  1  0  0  0  0
  8 47  1  0  0  0  0
  9 10  1  0  0  0  0
  9 11  1  0  0  0  0
 10 17  1  0  0  0  0
 10 48  1  0  0  0  0
 10 49  1  0  0  0  0
 11 12  2  0  0  0  0
 11 18  1  0  0  0  0
 13 14  1  0  0  0  0
 14 15  2  0  0  0  0
 14 16  1  0  0  0  0
 15 19  1  0  0  0  0
 15 50  1  0  0  0  0
 16 18  1  0  0  0  0
 16 22  2  0  0  0  0
 17 21  1  0  0  0  0
 17 24  2  0  0  0  0
 18 51  1  0  0  0  0
 19 20  2  0  0  0  0
 19 52  1  0  0  0  0
 20 22  1  0  0  0  0
 20 23  1  0  0  0  0
 21 25  1  0  0  0  0
 21 53  1  0  0  0  0
 21 54  1  0  0  0  0
 22 55  1  0  0  0  0
 23 26  1  0  0  0  0
 23 56  1  0  0  0  0
 23 57  1  0  0  0  0
 25 27  1  0  0  0  0
 25 29  2  0  0  0  0
 26 28  2  0  0  0  0
 26 30  1  0  0  0  0
 27 31  1  0  0  0  0
 27 33  2  0  0  0  0
 29 41  1  0  0  0  0
 29 58  1  0  0  0  0
 31 32  1  0  0  0  0
 31 36  2  0  0  0  0
 32 34  2  0  0  0  0
 32 40  1  0  0  0  0
 33 38  1  0  0  0  0
 33 39  1  0  0  0  0
 34 35  1  0  0  0  0
 34 59  1  0  0  0  0
 35 37  2  0  0  0  0
 35 60  1  0  0  0  0
 36 37  1  0  0  0  0
 36 61  1  0  0  0  0
 37 62  1  0  0  0  0
 38 40  1  0  0  0  0
 38 63  1  0  0  0  0
 38 64  1  0  0  0  0
 39 41  2  0  0  0  0
 39 65  1  0  0  0  0
 40 66  1  0  0  0  0
 40 67  1  0  0  0  0
 41 68  1  0  0  0  0
M  CHG  1  30  -1
M  END

$$$$
519
  MOE2022           3D

 68 72  0  0  1  0  0  0  0  0999 V2000
    2.5930   16.6120   20.1270 C   0  0  0  0  0  0  0  0  0  0  0  0
    2.6130   17.0680   18.8110 C   0  0  0  0  0  0  0  0  0  0  0  0
    1.4240   16.0960   20.6680 C   0  0  0  0  0  0  0  0  0  0  0  0
    0.2820   16.0420   19.8760 C   0  0  0  0  0  0  0  0  0  0  0  0
   -0.8610   15.5170   20.4050 O   0  0  0  0  0  0  0  0  0  0  0  0
    1.4630   17.0260   18.0160 C   0  0  0  0  0  0  0  0  0  0  0  0
    0.2880   16.5060   18.5590 C   0  0  0  0  0  0  0  0  0  0  0  0
    1.4970   17.5010   16.5630 C   0  0  1  0  0  0  0  0  0  0  0  0
    1.6580   18.9480   16.3410 N   0  0  0  0  0  0  0  0  0  0  0  0
    2.2680   19.8350   17.3580 C   0  0  0  0  0  0  0  0  0  0  0  0
    1.2890   19.5040   15.1290 C   0  0  0  0  0  0  0  0  0  0  0  0
    1.0800   20.7120   15.0140 O   0  0  0  0  0  0  0  0  0  0  0  0
    2.5000   16.7900   15.8490 O   0  0  0  0  0  0  0  0  0  0  0  0
    2.4910   16.6700   14.4810 C   0  0  0  0  0  0  0  0  0  0  0  0
    3.1620   15.5690   13.9720 C   0  0  0  0  0  0  0  0  0  0  0  0
    1.8640   17.5740   13.6050 C   0  0  0  0  0  0  0  0  0  0  0  0
    3.7880   19.9510   17.3230 C   0  0  0  0  0  0  0  0  0  0  0  0
    1.1240   18.7200   14.0040 N   0  0  0  0  0  0  0  0  0  0  0  0
    3.2410   15.3650   12.6000 C   0  0  0  0  0  0  0  0  0  0  0  0
    2.6700   16.2800   11.7190 C   0  0  0  0  0  0  0  0  0  0  0  0
    4.4930   20.8340   18.3380 C   0  0  0  0  0  0  0  0  0  0  0  0
    1.9660   17.3730   12.2240 C   0  0  0  0  0  0  0  0  0  0  0  0
    2.8490   16.0800   10.2250 C   0  0  0  0  0  0  0  0  0  0  0  0
    4.4380   19.3080   16.5440 O   0  0  0  0  0  0  0  0  0  0  0  0
    5.3700   21.9250   17.7230 C   0  0  0  0  0  0  0  0  0  0  0  0
    4.2950   15.8900    9.8080 C   0  0  0  0  0  0  0  0  0  0  0  0
    4.7700   23.1170   17.2690 C   0  0  0  0  0  0  0  0  0  0  0  0
    4.5840   14.8710    9.1440 O   0  0  0  0  0  0  0  0  0  0  0  0
    6.7560   21.7510   17.5820 C   0  0  0  0  0  0  0  0  0  0  0  0
    5.1210   16.7660   10.1500 O   0  5  0  0  0  0  0  0  0  0  0  0
    3.3480   23.3920   17.4460 C   0  0  0  0  0  0  0  0  0  0  0  0
    2.4660   23.3020   16.3610 C   0  0  0  0  0  0  0  0  0  0  0  0
    5.5560   24.0830   16.6370 C   0  0  0  0  0  0  0  0  0  0  0  0
    1.1120   23.5640   16.5270 C   0  0  0  0  0  0  0  0  0  0  0  0
    0.6370   23.9240   17.7860 C   0  0  0  0  0  0  0  0  0  0  0  0
    2.8490   23.7660   18.7020 C   0  0  0  0  0  0  0  0  0  0  0  0
   -0.6880   24.1790   17.9590 O   0  0  0  0  0  0  0  0  0  0  0  0
    7.4760   20.5180   18.0970 C   0  0  0  0  0  0  0  0  0  0  0  0
    1.4970   24.0310   18.8760 C   0  0  0  0  0  0  0  0  0  0  0  0
    7.5190   22.7380   16.9600 C   0  0  0  0  0  0  0  0  0  0  0  0
    6.9180   23.8930   16.4780 C   0  0  0  0  0  0  0  0  0  0  0  0
    3.4740   16.6530   20.7130 H   0  0  0  0  0  0  0  0  0  0  0  0
    3.5110   17.4530   18.4110 H   0  0  0  0  0  0  0  0  0  0  0  0
    1.4050   15.7480   21.6680 H   0  0  0  0  0  0  0  0  0  0  0  0
   -1.5830   15.5440   19.7470 H   0  0  0  0  0  0  0  0  0  0  0  0
   -0.5940   16.4530   17.9750 H   0  0  0  0  0  0  0  0  0  0  0  0
    0.5530   17.2110   16.1200 H   0  0  0  0  0  0  0  0  0  0  0  0
    1.8440   20.8270   17.2970 H   0  0  0  0  0  0  0  0  0  0  0  0
    1.9500   19.5230   18.3360 H   0  0  0  0  0  0  0  0  0  0  0  0
    3.6280   14.8920   14.6300 H   0  0  0  0  0  0  0  0  0  0  0  0
    0.6200   19.1980   13.2410 H   0  0  0  0  0  0  0  0  0  0  0  0
    3.7590   14.5190   12.2250 H   0  0  0  0  0  0  0  0  0  0  0  0
    3.7630   21.2930   18.9830 H   0  0  0  0  0  0  0  0  0  0  0  0
    5.0520   20.2100   19.0190 H   0  0  0  0  0  0  0  0  0  0  0  0
    1.5170   18.0640   11.5570 H   0  0  0  0  0  0  0  0  0  0  0  0
    2.2650   15.2250    9.9120 H   0  0  0  0  0  0  0  0  0  0  0  0
    2.4420   16.9210    9.6830 H   0  0  0  0  0  0  0  0  0  0  0  0
    2.8340   23.0250   15.4060 H   0  0  0  0  0  0  0  0  0  0  0  0
    5.1060   24.9730   16.2780 H   0  0  0  0  0  0  0  0  0  0  0  0
    0.4480   23.4880   15.7050 H   0  0  0  0  0  0  0  0  0  0  0  0
    3.5080   23.8460   19.5270 H   0  0  0  0  0  0  0  0  0  0  0  0
   -1.1800   24.0350   17.1270 H   0  0  0  0  0  0  0  0  0  0  0  0
    7.5460   20.5430   19.1840 H   0  0  0  0  0  0  0  0  0  0  0  0
    6.9490   19.6140   17.8030 H   0  0  0  0  0  0  0  0  0  0  0  0
    8.4880   20.4500   17.6970 H   0  0  0  0  0  0  0  0  0  0  0  0
    1.1220   24.3120   19.8250 H   0  0  0  0  0  0  0  0  0  0  0  0
    8.5660   22.6110   16.8480 H   0  0  0  0  0  0  0  0  0  0  0  0
    7.4980   24.6320   15.9910 H   0  0  0  0  0  0  0  0  0  0  0  0
  1  2  2  0  0  0  0
  1  3  1  0  0  0  0
  1 42  1  0  0  0  0
  2  6  1  0  0  0  0
  2 43  1  0  0  0  0
  3  4  2  0  0  0  0
  3 44  1  0  0  0  0
  4  5  1  0  0  0  0
  4  7  1  0  0  0  0
  5 45  1  0  0  0  0
  6  7  2  0  0  0  0
  6  8  1  0  0  0  0
  7 46  1  0  0  0  0
  8  9  1  0  0  0  0
  8 13  1  0  0  0  0
  8 47  1  0  0  0  0
  9 10  1  0  0  0  0
  9 11  1  0  0  0  0
 10 17  1  0  0  0  0
 10 48  1  0  0  0  0
 10 49  1  0  0  0  0
 11 12  2  0  0  0  0
 11 18  1  0  0  0  0
 13 14  1  0  0  0  0
 14 15  2  0  0  0  0
 14 16  1  0  0  0  0
 15 19  1  0  0  0  0
 15 50  1  0  0  0  0
 16 18  1  0  0  0  0
 16 22  2  0  0  0  0
 17 21  1  0  0  0  0
 17 24  2  0  0  0  0
 18 51  1  0  0  0  0
 19 20  2  0  0  0  0
 19 52  1  0  0  0  0
 20 22  1  0  0  0  0
 20 23  1  0  0  0  0
 21 25  1  0  0  0  0
 21 53  1  0  0  0  0
 21 54  1  0  0  0  0
 22 55  1  0  0  0  0
 23 26  1  0  0  0  0
 23 56  1  0  0  0  0
 23 57  1  0  0  0  0
 25 27  1  0  0  0  0
 25 29  2  0  0  0  0
 26 28  2  0  0  0  0
 26 30  1  0  0  0  0
 27 31  1  0  0  0  0
 27 33  2  0  0  0  0
 29 38  1  0  0  0  0
 29 40  1  0  0  0  0
 31 32  1  0  0  0  0
 31 36  2  0  0  0  0
 32 34  2  0  0  0  0
 32 58  1  0  0  0  0
 33 41  1  0  0  0  0
 33 59  1  0  0  0  0
 34 35  1  0  0  0  0
 34 60  1  0  0  0  0
 35 37  1  0  0  0  0
 35 39  2  0  0  0  0
 36 39  1  0  0  0  0
 36 61  1  0  0  0  0
 37 62  1  0  0  0  0
 38 63  1  0  0  0  0
 38 64  1  0  0  0  0
 38 65  1  0  0  0  0
 39 66  1  0  0  0  0
 40 41  2  0  0  0  0
 40 67  1  0  0  0  0
 41 68  1  0  0  0  0
M  CHG  1  30  -1
M  END

$$$$
