525
  MOE2022           3D

 69 73  0  0  1  0  0  0  0  0999 V2000
    2.0230   16.4700   20.0300 C   0  0  0  0  0  0  0  0  0  0  0  0
    2.5560   17.0060   18.8600 C   0  0  0  0  0  0  0  0  0  0  0  0
    0.6930   16.0750   20.0700 C   0  0  0  0  0  0  0  0  0  0  0  0
   -0.0860   16.2190   18.9270 C   0  0  0  0  0  0  0  0  0  0  0  0
   -1.3830   15.8000   18.9570 O   0  0  0  0  0  0  0  0  0  0  0  0
    1.7680   17.1770   17.7170 C   0  0  0  0  0  0  0  0  0  0  0  0
    0.4330   16.7740   17.7580 C   0  0  0  0  0  0  0  0  0  0  0  0
    2.3450   17.7110   16.4040 C   0  0  1  0  0  0  0  0  0  0  0  0
    3.1760   18.9400   16.4410 N   0  0  0  0  0  0  0  0  0  0  0  0
    3.1070   19.8620   17.6030 C   0  0  0  0  0  0  0  0  0  0  0  0
    3.6880   19.5030   15.2740 C   0  0  0  0  0  0  0  0  0  0  0  0
    4.2930   20.5780   15.3070 O   0  0  0  0  0  0  0  0  0  0  0  0
    3.0680   16.6480   15.7900 O   0  0  0  0  0  0  0  0  0  0  0  0
    3.0720   16.5220   14.4320 C   0  0  0  0  0  0  0  0  0  0  0  0
    2.8930   15.2490   13.9030 C   0  0  0  0  0  0  0  0  0  0  0  0
    3.2920   17.6130   13.5830 C   0  0  0  0  0  0  0  0  0  0  0  0
    4.4160   20.0700   18.3580 C   0  0  0  0  0  0  0  0  0  0  0  0
    3.5160   18.9430   14.0190 N   0  0  0  0  0  0  0  0  0  0  0  0
    2.9980   15.0460   12.5300 C   0  0  0  0  0  0  0  0  0  0  0  0
    3.2550   16.1190   11.6780 C   0  0  0  0  0  0  0  0  0  0  0  0
    4.8090   21.4330   18.8890 C   0  0  0  0  0  0  0  0  0  0  0  0
    3.3730   17.4050   12.2040 C   0  0  0  0  0  0  0  0  0  0  0  0
    3.4540   15.8740   10.1930 C   0  0  0  0  0  0  0  0  0  0  0  0
    5.1150   19.1370   18.6230 O   0  0  0  0  0  0  0  0  0  0  0  0
    5.4890   22.3600   17.8780 C   0  0  0  0  0  0  0  0  0  0  0  0
    4.8480   15.3880    9.8480 C   0  0  0  0  0  0  0  0  0  0  0  0
    4.8110   23.5040   17.4060 C   0  0  0  0  0  0  0  0  0  0  0  0
    4.9620   14.2420    9.3590 O   0  0  0  0  0  0  0  0  0  0  0  0
    6.7930   22.0870   17.4240 C   0  0  0  0  0  0  0  0  0  0  0  0
    5.8050   16.1650   10.0590 O   0  5  0  0  0  0  0  0  0  0  0  0
    3.4840   23.8730   17.8880 C   0  0  0  0  0  0  0  0  0  0  0  0
    2.3310   23.4630   17.2040 C   0  0  0  0  0  0  0  0  0  0  0  0
    5.4540   24.3220   16.4660 C   0  0  0  0  0  0  0  0  0  0  0  0
    1.0690   23.7980   17.6800 C   0  0  0  0  0  0  0  0  0  0  0  0
    0.9600   24.5610   18.8410 C   0  0  0  0  0  0  0  0  0  0  0  0
    3.3480   24.6470   19.0490 C   0  0  0  0  0  0  0  0  0  0  0  0
   -0.2720   24.9030   19.3090 O   0  0  0  0  0  0  0  0  0  0  0  0
    7.6030   20.8900   17.9010 C   0  0  0  0  0  0  0  0  0  0  0  0
    2.0910   24.9890   19.5300 C   0  0  0  0  0  0  0  0  0  0  0  0
    7.3980   22.9280   16.4880 C   0  0  0  0  0  0  0  0  0  0  0  0
    4.8240   25.4330   15.9810 O   0  0  0  0  0  0  0  0  0  0  0  0
    6.7320   24.0430   16.0050 C   0  0  0  0  0  0  0  0  0  0  0  0
    2.6360   16.3590   20.8870 H   0  0  0  0  0  0  0  0  0  0  0  0
    3.5730   17.2790   18.8460 H   0  0  0  0  0  0  0  0  0  0  0  0
    0.2790   15.6650   20.9530 H   0  0  0  0  0  0  0  0  0  0  0  0
   -1.8040   15.9210   18.0840 H   0  0  0  0  0  0  0  0  0  0  0  0
   -0.1820   16.8720   16.9010 H   0  0  0  0  0  0  0  0  0  0  0  0
    1.5020   17.9240   15.7580 H   0  0  0  0  0  0  0  0  0  0  0  0
    2.7440   20.8210   17.2670 H   0  0  0  0  0  0  0  0  0  0  0  0
    2.3340   19.5510   18.2850 H   0  0  0  0  0  0  0  0  0  0  0  0
    2.6860   14.4330   14.5400 H   0  0  0  0  0  0  0  0  0  0  0  0
    3.7420   19.5990   13.2570 H   0  0  0  0  0  0  0  0  0  0  0  0
    2.8950   14.0670   12.1350 H   0  0  0  0  0  0  0  0  0  0  0  0
    3.9370   21.8880   19.3300 H   0  0  0  0  0  0  0  0  0  0  0  0
    5.4730   21.3010   19.7300 H   0  0  0  0  0  0  0  0  0  0  0  0
    3.5600   18.2230   11.5560 H   0  0  0  0  0  0  0  0  0  0  0  0
    2.7220   15.1590    9.8450 H   0  0  0  0  0  0  0  0  0  0  0  0
    3.2500   16.7790    9.6370 H   0  0  0  0  0  0  0  0  0  0  0  0
    2.4240   22.8920   16.3160 H   0  0  0  0  0  0  0  0  0  0  0  0
    0.2000   23.4800   17.1640 H   0  0  0  0  0  0  0  0  0  0  0  0
    4.2140   24.9740   19.5620 H   0  0  0  0  0  0  0  0  0  0  0  0
   -0.9780   24.4760   18.7850 H   0  0  0  0  0  0  0  0  0  0  0  0
    7.5110   20.7380   18.9750 H   0  0  0  0  0  0  0  0  0  0  0  0
    7.2810   19.9870   17.3840 H   0  0  0  0  0  0  0  0  0  0  0  0
    8.6640   21.0280   17.6930 H   0  0  0  0  0  0  0  0  0  0  0  0
    1.9900   25.5700   20.4100 H   0  0  0  0  0  0  0  0  0  0  0  0
    8.3760   22.7160   16.1400 H   0  0  0  0  0  0  0  0  0  0  0  0
    3.9240   25.5050   16.3570 H   0  0  0  0  0  0  0  0  0  0  0  0
    7.1940   24.6780   15.2940 H   0  0  0  0  0  0  0  0  0  0  0  0
  1  2  2  0  0  0  0
  1  3  1  0  0  0  0
  1 43  1  0  0  0  0
  2  6  1  0  0  0  0
  2 44  1  0  0  0  0
  3  4  2  0  0  0  0
  3 45  1  0  0  0  0
  4  5  1  0  0  0  0
  4  7  1  0  0  0  0
  5 46  1  0  0  0  0
  6  7  2  0  0  0  0
  6  8  1  0  0  0  0
  7 47  1  0  0  0  0
  8  9  1  0  0  0  0
  8 13  1  0  0  0  0
  8 48  1  0  0  0  0
  9 10  1  0  0  0  0
  9 11  1  0  0  0  0
 10 17  1  0  0  0  0
 10 49  1  0  0  0  0
 10 50  1  0  0  0  0
 11 12  2  0  0  0  0
 11 18  1  0  0  0  0
 13 14  1  0  0  0  0
 14 15  2  0  0  0  0
 14 16  1  0  0  0  0
 15 19  1  0  0  0  0
 15 51  1  0  0  0  0
 16 18  1  0  0  0  0
 16 22  2  0  0  0  0
 17 21  1  0  0  0  0
 17 24  2  0  0  0  0
 18 52  1  0  0  0  0
 19 20  2  0  0  0  0
 19 53  1  0  0  0  0
 20 22  1  0  0  0  0
 20 23  1  0  0  0  0
 21 25  1  0  0  0  0
 21 54  1  0  0  0  0
 21 55  1  0  0  0  0
 22 56  1  0  0  0  0
 23 26  1  0  0  0  0
 23 57  1  0  0  0  0
 23 58  1  0  0  0  0
 25 27  2  0  0  0  0
 25 29  1  0  0  0  0
 26 28  2  0  0  0  0
 26 30  1  0  0  0  0
 27 31  1  0  0  0  0
 27 33  1  0  0  0  0
 29 38  1  0  0  0  0
 29 40  2  0  0  0  0
 31 32  1  0  0  0  0
 31 36  2  0  0  0  0
 32 34  2  0  0  0  0
 32 59  1  0  0  0  0
 33 41  1  0  0  0  0
 33 42  2  0  0  0  0
 34 35  1  0  0  0  0
 34 60  1  0  0  0  0
 35 37  1  0  0  0  0
 35 39  2  0  0  0  0
 36 39  1  0  0  0  0
 36 61  1  0  0  0  0
 37 62  1  0  0  0  0
 38 63  1  0  0  0  0
 38 64  1  0  0  0  0
 38 65  1  0  0  0  0
 39 66  1  0  0  0  0
 40 42  1  0  0  0  0
 40 67  1  0  0  0  0
 41 68  1  0  0  0  0
 42 69  1  0  0  0  0
M  CHG  1  30  -1
M  END
