0
  MOE2022           3D

 15 15  0  0  0  0  0  0  0  0999 V2000
    5.1070   14.0760   10.7230 C   0  0  0  0  0  0  0  0  0  0  0  0
    4.0960   14.8550   11.2800 C   0  0  0  0  0  0  0  0  0  0  0  0
    5.8670   14.6010    9.6830 C   0  0  0  0  0  0  0  0  0  0  0  0
    3.3450   14.3550   12.3030 O   0  0  0  0  0  0  0  0  0  0  0  0
    5.6170   15.8860    9.2110 C   0  0  0  0  0  0  0  0  0  0  0  0
    4.6040   16.6760    9.7790 C   0  0  0  0  0  0  0  0  0  0  0  0
    4.3530   18.0340    9.2990 C   0  0  0  0  0  0  0  0  0  0  0  0
    4.4770   18.2940    8.0720 O   0  5  0  0  0  0  0  0  0  0  0  0
    4.0390   18.9270   10.1310 O   0  0  0  0  0  0  0  0  0  0  0  0
    3.8400   16.1430   10.8230 C   0  0  0  0  0  0  0  0  0  0  0  0
    5.2960   13.0980   11.0830 H   0  0  0  0  0  0  0  0  0  0  0  0
    6.6370   14.0190    9.2480 H   0  0  0  0  0  0  0  0  0  0  0  0
    3.6690   13.4680   12.5650 H   0  0  0  0  0  0  0  0  0  0  0  0
    6.1990   16.2730    8.4140 H   0  0  0  0  0  0  0  0  0  0  0  0
    3.0670   16.7180   11.2660 H   0  0  0  0  0  0  0  0  0  0  0  0
  1  2  1  0  0  0  0
  1  3  2  0  0  0  0
  1 11  1  0  0  0  0
  2  4  1  0  0  0  0
  2 10  2  0  0  0  0
  3  5  1  0  0  0  0
  3 12  1  0  0  0  0
  4 13  1  0  0  0  0
  5  6  2  0  0  0  0
  5 14  1  0  0  0  0
  6  7  1  0  0  0  0
  6 10  1  0  0  0  0
  7  8  1  0  0  0  0
  7  9  2  0  0  0  0
 10 15  1  0  0  0  0
M  CHG  1   8  -1
M  END
> <rseq>
1

> <mseq>
1

> <S>
-3.484077

> <rmsd_refine>
1.285042

> <E_conf>
-78.32475

> <E_score1>
-6.319884

> <E_refine>
-15.4804

> <E_score2>
-3.484077

>  <$File>
outputs/pdb_4j58_cleaned.pdb_2024_06_17__22_47_40_V2_BS398_MIN1_/SDF/sdf_db.sdf

> <Rec_index>
1

>  <PLIF_raw>
[[4,9,9,1,3,5,6,10,2],[1056,823,829,823,823,823,823,823,823],[70,54,54,54,54,54,54,54,54],[3,7,7,10,10,10,10,10,10],[2.3,0.6014166736,2.489905477,0.7,0.7,0.7,0.7,0.7,0.7]]

> <FP:PLIF>
1 2 3 4

>  <PLIF_ligidx>
[[9,9],[1,3,5,6,10,2],4,4]

$$$$
1
  MOE2022           3D

 14 14  0  0  0  0  0  0  0  0999 V2000
    5.8340   14.1210    9.2630 C   0  0  0  0  0  0  0  0  0  0  0  0
    5.7620   15.4640    8.9070 C   0  0  0  0  0  0  0  0  0  0  0  0
    4.9830   16.3420    9.6510 C   0  0  0  0  0  0  0  0  0  0  0  0
    4.2660   15.8950   10.7710 C   0  0  0  0  0  0  0  0  0  0  0  0
    5.1210   13.6580   10.3630 C   0  0  0  0  0  0  0  0  0  0  0  0
    4.3390   14.5340   11.1070 C   0  0  0  0  0  0  0  0  0  0  0  0
    3.4860   16.8340   11.5860 C   0  0  0  0  0  0  0  0  0  0  0  0
    3.5790   18.0720   11.3670 O   0  5  0  0  0  0  0  0  0  0  0  0
    2.7640   16.4010   12.5230 O   0  0  0  0  0  0  0  0  0  0  0  0
    6.4270   13.4510    8.6970 H   0  0  0  0  0  0  0  0  0  0  0  0
    6.2980   15.8200    8.0660 H   0  0  0  0  0  0  0  0  0  0  0  0
    4.9340   17.3600    9.3630 H   0  0  0  0  0  0  0  0  0  0  0  0
    5.1730   12.6360   10.6350 H   0  0  0  0  0  0  0  0  0  0  0  0
    3.8000   14.1660   11.9420 H   0  0  0  0  0  0  0  0  0  0  0  0
  1  2  1  0  0  0  0
  1  5  2  0  0  0  0
  1 10  1  0  0  0  0
  2  3  2  0  0  0  0
  2 11  1  0  0  0  0
  3  4  1  0  0  0  0
  3 12  1  0  0  0  0
  4  6  2  0  0  0  0
  4  7  1  0  0  0  0
  5  6  1  0  0  0  0
  5 13  1  0  0  0  0
  6 14  1  0  0  0  0
  7  8  1  0  0  0  0
  7  9  2  0  0  0  0
M  CHG  1   8  -1
M  END
> <rseq>
1

> <mseq>
2

> <S>
-3.396009

> <rmsd_refine>
0.645669

> <E_conf>
-41.64726

> <E_score1>
-6.530071

> <E_refine>
-10.79486

> <E_score2>
-3.396009

>  <$File>
outputs/pdb_4j58_cleaned.pdb_2024_06_17__22_47_40_V2_BS398_MIN1_/SDF/sdf_db.sdf

> <Rec_index>
1

>  <PLIF_raw>
[[8,8,9],[823,829,823],[54,54,54],[7,7,7],[2.738522117,1.927749276,0.9908102933]]

> <FP:PLIF>
1

>  <PLIF_ligidx>
[[8,8,9]]

$$$$
2
  MOE2022           3D

 18 19  0  0  0  0  0  0  0  0999 V2000
    5.8380   14.5910    9.6510 C   0  0  0  0  0  0  0  0  0  0  0  0
    5.7470   15.8190    8.9640 C   0  0  0  0  0  0  0  0  0  0  0  0
    4.8390   16.7700    9.3630 C   0  0  0  0  0  0  0  0  0  0  0  0
    3.9890   16.5370   10.4720 C   0  0  0  0  0  0  0  0  0  0  0  0
    5.0120   14.3310   10.7170 C   0  0  0  0  0  0  0  0  0  0  0  0
    4.0640   15.2950   11.1490 C   0  0  0  0  0  0  0  0  0  0  0  0
    3.1980   15.0570   12.2480 C   0  0  0  0  0  0  0  0  0  0  0  0
    3.0690   17.5160   10.9270 C   0  0  0  0  0  0  0  0  0  0  0  0
    2.2530   17.2640   12.0030 C   0  0  0  0  0  0  0  0  0  0  0  0
    2.3160   16.0220   12.6670 C   0  0  0  0  0  0  0  0  0  0  0  0
    6.5460   13.8690    9.3350 H   0  0  0  0  0  0  0  0  0  0  0  0
    6.3810   16.0020    8.1360 H   0  0  0  0  0  0  0  0  0  0  0  0
    4.7710   17.6890    8.8410 H   0  0  0  0  0  0  0  0  0  0  0  0
    5.0790   13.4050   11.2270 H   0  0  0  0  0  0  0  0  0  0  0  0
    3.2380   14.1250   12.7480 H   0  0  0  0  0  0  0  0  0  0  0  0
    3.0150   18.4490   10.4270 H   0  0  0  0  0  0  0  0  0  0  0  0
    1.5670   17.9990   12.3390 H   0  0  0  0  0  0  0  0  0  0  0  0
    1.6750   15.8400   13.4910 H   0  0  0  0  0  0  0  0  0  0  0  0
  1  2  1  0  0  0  0
  1  5  2  0  0  0  0
  1 11  1  0  0  0  0
  2  3  2  0  0  0  0
  2 12  1  0  0  0  0
  3  4  1  0  0  0  0
  3 13  1  0  0  0  0
  4  6  2  0  0  0  0
  4  8  1  0  0  0  0
  5  6  1  0  0  0  0
  5 14  1  0  0  0  0
  6  7  1  0  0  0  0
  7 10  2  0  0  0  0
  7 15  1  0  0  0  0
  8  9  2  0  0  0  0
  8 16  1  0  0  0  0
  9 10  1  0  0  0  0
  9 17  1  0  0  0  0
 10 18  1  0  0  0  0
M  END
> <rseq>
1

> <mseq>
3

> <S>
-3.45272

> <rmsd_refine>
0.6473398

> <E_conf>
9.442516

> <E_score1>
-5.947263

> <E_refine>
-12.26696

> <E_score2>
-3.45272

>  <$File>
outputs/pdb_4j58_cleaned.pdb_2024_06_17__22_47_40_V2_BS398_MIN1_/SDF/sdf_db.sdf

> <Rec_index>
1

>  <PLIF_raw>
[[1,5,6,4,3,2],[823,823,823,823,823,823],[54,54,54,54,54,54],[10,10,10,10,10,10],[1.4,1.4,1.4,1.4,1.4,1.4]]

> <FP:PLIF>
2 5

>  <PLIF_ligidx>
[[1,5,6,4,3,2],[1,5,6,4,3,2]]

$$$$
3
  MOE2022           3D

 15 15  0  0  0  0  0  0  0  0999 V2000
    5.8710   14.7490    9.2920 C   0  0  0  0  0  0  0  0  0  0  0  0
    5.2570   14.0010   10.2910 C   0  0  0  0  0  0  0  0  0  0  0  0
    5.5150   16.0770    9.0860 C   0  0  0  0  0  0  0  0  0  0  0  0
    5.6470   12.5550   10.5050 C   0  0  0  0  0  0  0  0  0  0  0  0
    4.5440   16.6690    9.8870 C   0  0  0  0  0  0  0  0  0  0  0  0
    3.9270   15.9280   10.8900 C   0  0  0  0  0  0  0  0  0  0  0  0
    4.2820   14.5960   11.0900 C   0  0  0  0  0  0  0  0  0  0  0  0
    6.6080   14.3040    8.6800 H   0  0  0  0  0  0  0  0  0  0  0  0
    5.9800   16.6350    8.3150 H   0  0  0  0  0  0  0  0  0  0  0  0
    4.7580   11.9360   10.6210 H   0  0  0  0  0  0  0  0  0  0  0  0
    6.2180   12.1690    9.6610 H   0  0  0  0  0  0  0  0  0  0  0  0
    6.2570   12.4540   11.4020 H   0  0  0  0  0  0  0  0  0  0  0  0
    4.2730   17.6820    9.7310 H   0  0  0  0  0  0  0  0  0  0  0  0
    3.1850   16.3750   11.4990 H   0  0  0  0  0  0  0  0  0  0  0  0
    3.8050   14.0360   11.8530 H   0  0  0  0  0  0  0  0  0  0  0  0
  1  2  1  0  0  0  0
  1  3  2  0  0  0  0
  1  8  1  0  0  0  0
  2  4  1  0  0  0  0
  2  7  2  0  0  0  0
  3  5  1  0  0  0  0
  3  9  1  0  0  0  0
  4 10  1  0  0  0  0
  4 11  1  0  0  0  0
  4 12  1  0  0  0  0
  5  6  2  0  0  0  0
  5 13  1  0  0  0  0
  6  7  1  0  0  0  0
  6 14  1  0  0  0  0
  7 15  1  0  0  0  0
M  END
> <rseq>
1

> <mseq>
4

> <S>
-3.438099

> <rmsd_refine>
0.8716458

> <E_conf>
0.3850673

> <E_score1>
-5.468795

> <E_refine>
-10.93118

> <E_score2>
-3.438099

>  <$File>
outputs/pdb_4j58_cleaned.pdb_2024_06_17__22_47_40_V2_BS398_MIN1_/SDF/sdf_db.sdf

> <Rec_index>
1

>  <PLIF_raw>
[[1,3,5,6,7,2],[823,823,823,823,823,823],[54,54,54,54,54,54],[10,10,10,10,10,10],[0.9,0.9,0.9,0.9,0.9,0.9]]

> <FP:PLIF>
2

>  <PLIF_ligidx>
[[1,3,5,6,7,2]]

$$$$
4
  MOE2022           3D

 19 19  0  0  0  0  0  0  0  0999 V2000
    7.2500   20.3110   19.3220 C   0  0  0  0  0  0  0  0  0  0  0  0
    6.0080   20.2610   18.7000 C   0  0  0  0  0  0  0  0  0  0  0  0
    8.3370   20.8730   18.6590 C   0  0  0  0  0  0  0  0  0  0  0  0
    5.8500   20.7690   17.4150 C   0  0  0  0  0  0  0  0  0  0  0  0
    6.9390   21.3360   16.7330 C   0  0  0  0  0  0  0  0  0  0  0  0
    6.8020   21.8560   15.3720 C   0  0  0  0  0  0  0  0  0  0  0  0
    8.1840   21.3810   17.3750 C   0  0  0  0  0  0  0  0  0  0  0  0
    5.5730   22.3110   14.9600 N   0  0  0  0  0  0  0  0  0  0  0  0
    7.7350   21.8810   14.5720 O   0  0  0  0  0  0  0  0  0  0  0  0
    5.2950   22.7920   13.6080 C   0  0  0  0  0  0  0  0  0  0  0  0
    7.3690   19.9210   20.2990 H   0  0  0  0  0  0  0  0  0  0  0  0
    5.1800   19.8310   19.2040 H   0  0  0  0  0  0  0  0  0  0  0  0
    9.2850   20.9130   19.1310 H   0  0  0  0  0  0  0  0  0  0  0  0
    4.8990   20.7130   16.9520 H   0  0  0  0  0  0  0  0  0  0  0  0
    9.0180   21.8070   16.8800 H   0  0  0  0  0  0  0  0  0  0  0  0
    4.7800   22.2580   15.6180 H   0  0  0  0  0  0  0  0  0  0  0  0
    5.0690   21.9600   12.9400 H   0  0  0  0  0  0  0  0  0  0  0  0
    4.4370   23.4650   13.6110 H   0  0  0  0  0  0  0  0  0  0  0  0
    6.1430   23.3400   13.1960 H   0  0  0  0  0  0  0  0  0  0  0  0
  1  2  2  0  0  0  0
  1  3  1  0  0  0  0
  1 11  1  0  0  0  0
  2  4  1  0  0  0  0
  2 12  1  0  0  0  0
  3  7  2  0  0  0  0
  3 13  1  0  0  0  0
  4  5  2  0  0  0  0
  4 14  1  0  0  0  0
  5  6  1  0  0  0  0
  5  7  1  0  0  0  0
  6  8  1  0  0  0  0
  6  9  2  0  0  0  0
  7 15  1  0  0  0  0
  8 10  1  0  0  0  0
  8 16  1  0  0  0  0
 10 17  1  0  0  0  0
 10 18  1  0  0  0  0
 10 19  1  0  0  0  0
M  END
> <rseq>
1

> <mseq>
5

> <S>
-3.786231

> <rmsd_refine>
1.380387

> <E_conf>
5.431838

> <E_score1>
-4.711585

> <E_refine>
-14.57497

> <E_score2>
-3.786231

>  <$File>
outputs/pdb_4j58_cleaned.pdb_2024_06_17__22_47_40_V2_BS398_MIN1_/SDF/sdf_db.sdf

> <Rec_index>
1

>  <PLIF_raw>
[9,826,54,2,0.8]

> <FP:PLIF>
6

>  <PLIF_ligidx>
9

$$$$
5
  MOE2022           3D

 18 19  0  0  0  0  0  0  0  0999 V2000
    5.6550   14.3250    9.3570 C   0  0  0  0  0  0  0  0  0  0  0  0
    5.7150   15.7260    9.2190 C   0  0  0  0  0  0  0  0  0  0  0  0
    4.8640   16.5300    9.9440 C   0  0  0  0  0  0  0  0  0  0  0  0
    4.7270   13.7770   10.2090 C   0  0  0  0  0  0  0  0  0  0  0  0
    4.6770   12.4190   10.3160 F   0  0  0  0  0  0  0  0  0  0  0  0
    3.8250   14.5640   10.9710 C   0  0  0  0  0  0  0  0  0  0  0  0
    3.9180   15.9730   10.8470 C   0  0  0  0  0  0  0  0  0  0  0  0
    2.8470   14.0120   11.8390 C   0  0  0  0  0  0  0  0  0  0  0  0
    3.0650   16.7910   11.6310 C   0  0  0  0  0  0  0  0  0  0  0  0
    2.1470   16.2300   12.4850 C   0  0  0  0  0  0  0  0  0  0  0  0
    2.0330   14.8280   12.5870 C   0  0  0  0  0  0  0  0  0  0  0  0
    6.3140   13.7080    8.8030 H   0  0  0  0  0  0  0  0  0  0  0  0
    6.4150   16.1550    8.5500 H   0  0  0  0  0  0  0  0  0  0  0  0
    4.9070   17.5830    9.8310 H   0  0  0  0  0  0  0  0  0  0  0  0
    2.7460   12.9600   11.9130 H   0  0  0  0  0  0  0  0  0  0  0  0
    3.1400   17.8450   11.5520 H   0  0  0  0  0  0  0  0  0  0  0  0
    1.5130   16.8460   13.0700 H   0  0  0  0  0  0  0  0  0  0  0  0
    1.3130   14.4100   13.2420 H   0  0  0  0  0  0  0  0  0  0  0  0
  1  2  2  0  0  0  0
  1  4  1  0  0  0  0
  1 12  1  0  0  0  0
  2  3  1  0  0  0  0
  2 13  1  0  0  0  0
  3  7  2  0  0  0  0
  3 14  1  0  0  0  0
  4  5  1  0  0  0  0
  4  6  2  0  0  0  0
  6  7  1  0  0  0  0
  6  8  1  0  0  0  0
  7  9  1  0  0  0  0
  8 11  2  0  0  0  0
  8 15  1  0  0  0  0
  9 10  2  0  0  0  0
  9 16  1  0  0  0  0
 10 11  1  0  0  0  0
 10 17  1  0  0  0  0
 11 18  1  0  0  0  0
M  END
> <rseq>
1

> <mseq>
6

> <S>
-3.498379

> <rmsd_refine>
1.102586

> <E_conf>
16.99386

> <E_score1>
-5.326823

> <E_refine>
-12.04252

> <E_score2>
-3.498379

>  <$File>
outputs/pdb_4j58_cleaned.pdb_2024_06_17__22_47_40_V2_BS398_MIN1_/SDF/sdf_db.sdf

> <Rec_index>
1

>  <PLIF_raw>
[[],[],[],[],[]]

>  <PLIF_ligidx>
[]

$$$$
6
  MOE2022           3D

 28 28  0  0  0  0  0  0  0  0999 V2000
    2.9500   17.4120   19.2600 C   0  0  0  0  0  0  0  0  0  0  0  0
    1.8600   16.5600   19.3950 C   0  0  0  0  0  0  0  0  0  0  0  0
    3.1600   18.0740   18.0470 C   0  0  0  0  0  0  0  0  0  0  0  0
    4.2330   18.9230   17.8560 O   0  0  0  0  0  0  0  0  0  0  0  0
    2.2960   17.8760   16.9720 C   0  0  0  0  0  0  0  0  0  0  0  0
    0.9880   16.3670   18.3260 C   0  0  0  0  0  0  0  0  0  0  0  0
    1.2080   17.0220   17.1160 C   0  0  0  0  0  0  0  0  0  0  0  0
    4.7980   19.7920   18.8740 C   0  0  0  0  0  0  0  0  0  0  0  0
    6.2280   20.2340   18.5560 C   0  0  0  0  0  0  0  0  0  0  0  0
    6.2990   21.0130   17.2330 C   0  0  0  0  0  0  0  0  0  0  0  0
    7.7360   21.3600   16.8160 C   0  0  0  0  0  0  0  0  0  0  0  0
    8.4390   22.2970   17.8030 C   0  0  0  0  0  0  0  0  0  0  0  0
    3.6120   17.5440   20.0730 H   0  0  0  0  0  0  0  0  0  0  0  0
    1.6940   16.0550   20.3110 H   0  0  0  0  0  0  0  0  0  0  0  0
    2.4660   18.3760   16.0540 H   0  0  0  0  0  0  0  0  0  0  0  0
    0.1580   15.7160   18.4310 H   0  0  0  0  0  0  0  0  0  0  0  0
    0.5440   16.8690   16.3060 H   0  0  0  0  0  0  0  0  0  0  0  0
    4.1660   20.6760   18.9540 H   0  0  0  0  0  0  0  0  0  0  0  0
    4.8080   19.2790   19.8320 H   0  0  0  0  0  0  0  0  0  0  0  0
    6.5780   20.8660   19.3720 H   0  0  0  0  0  0  0  0  0  0  0  0
    6.8700   19.3560   18.5000 H   0  0  0  0  0  0  0  0  0  0  0  0
    5.8550   20.4090   16.4420 H   0  0  0  0  0  0  0  0  0  0  0  0
    5.7180   21.9310   17.3240 H   0  0  0  0  0  0  0  0  0  0  0  0
    8.3150   20.4410   16.7190 H   0  0  0  0  0  0  0  0  0  0  0  0
    7.7040   21.8490   15.8420 H   0  0  0  0  0  0  0  0  0  0  0  0
    8.6340   21.7820   18.7450 H   0  0  0  0  0  0  0  0  0  0  0  0
    9.3890   22.6150   17.3780 H   0  0  0  0  0  0  0  0  0  0  0  0
    7.8220   23.1770   17.9870 H   0  0  0  0  0  0  0  0  0  0  0  0
  1  2  1  0  0  0  0
  1  3  2  0  0  0  0
  1 13  1  0  0  0  0
  2  6  2  0  0  0  0
  2 14  1  0  0  0  0
  3  4  1  0  0  0  0
  3  5  1  0  0  0  0
  4  8  1  0  0  0  0
  5  7  2  0  0  0  0
  5 15  1  0  0  0  0
  6  7  1  0  0  0  0
  6 16  1  0  0  0  0
  7 17  1  0  0  0  0
  8  9  1  0  0  0  0
  8 18  1  0  0  0  0
  8 19  1  0  0  0  0
  9 10  1  0  0  0  0
  9 20  1  0  0  0  0
  9 21  1  0  0  0  0
 10 11  1  0  0  0  0
 10 22  1  0  0  0  0
 10 23  1  0  0  0  0
 11 12  1  0  0  0  0
 11 24  1  0  0  0  0
 11 25  1  0  0  0  0
 12 26  1  0  0  0  0
 12 27  1  0  0  0  0
 12 28  1  0  0  0  0
M  END
> <rseq>
1

> <mseq>
7

> <S>
-4.614458

> <rmsd_refine>
1.52502

> <E_conf>
9.982015

> <E_score1>
-6.668787

> <E_refine>
-17.51336

> <E_score2>
-4.614458

>  <$File>
outputs/pdb_4j58_cleaned.pdb_2024_06_17__22_47_40_V2_BS398_MIN1_/SDF/sdf_db.sdf

> <Rec_index>
1

>  <PLIF_raw>
[[],[],[],[],[]]

>  <PLIF_ligidx>
[]

$$$$
7
  MOE2022           3D

 26 25  0  0  0  0  0  0  0  0999 V2000
    7.3880   20.8570   19.6690 C   0  0  0  0  0  0  0  0  0  0  0  0
    6.5310   21.0580   18.4070 C   0  0  0  0  0  0  0  0  0  0  0  0
    5.4290   20.0060   18.3950 C   0  0  0  0  0  0  0  0  0  0  0  0
    5.8930   22.4580   18.4400 C   0  0  0  0  0  0  0  0  0  0  0  0
    4.7300   19.6440   17.2960 C   0  0  0  0  0  0  0  0  0  0  0  0
    3.6920   18.6230   17.2760 C   0  0  0  0  0  0  0  0  0  0  0  0
    3.2140   18.1590   18.5010 N   0  0  0  0  0  0  0  0  0  0  0  0
    3.2670   18.1610   16.2260 O   0  0  0  0  0  0  0  0  0  0  0  0
    7.4530   20.9360   17.1740 C   0  0  0  0  0  0  0  0  0  0  0  0
    2.3500   17.1040   18.7740 C   0  0  0  0  0  0  0  0  0  0  0  0
    1.7600   16.4410   17.7440 N   0  0  0  0  0  0  0  0  0  0  0  0
    2.1390   16.7810   19.9400 O   0  0  0  0  0  0  0  0  0  0  0  0
    7.8510   19.8690   19.6610 H   0  0  0  0  0  0  0  0  0  0  0  0
    8.1820   21.6020   19.7210 H   0  0  0  0  0  0  0  0  0  0  0  0
    6.7860   20.9390   20.5730 H   0  0  0  0  0  0  0  0  0  0  0  0
    5.2300   19.5610   19.3360 H   0  0  0  0  0  0  0  0  0  0  0  0
    5.3060   22.6370   17.5380 H   0  0  0  0  0  0  0  0  0  0  0  0
    5.2260   22.5600   19.2960 H   0  0  0  0  0  0  0  0  0  0  0  0
    6.6570   23.2340   18.5050 H   0  0  0  0  0  0  0  0  0  0  0  0
    4.9280   20.0940   16.3590 H   0  0  0  0  0  0  0  0  0  0  0  0
    3.5630   18.6550   19.3340 H   0  0  0  0  0  0  0  0  0  0  0  0
    6.9180   21.1530   16.2510 H   0  0  0  0  0  0  0  0  0  0  0  0
    8.2830   21.6400   17.2430 H   0  0  0  0  0  0  0  0  0  0  0  0
    7.8740   19.9330   17.1030 H   0  0  0  0  0  0  0  0  0  0  0  0
    1.1940   15.5980   17.9200 H   0  0  0  0  0  0  0  0  0  0  0  0
    1.9520   16.7220   16.7690 H   0  0  0  0  0  0  0  0  0  0  0  0
  1  2  1  0  0  0  0
  1 13  1  0  0  0  0
  1 14  1  0  0  0  0
  1 15  1  0  0  0  0
  2  3  1  0  0  0  0
  2  4  1  0  0  0  0
  2  9  1  0  0  0  0
  3  5  2  0  0  0  0
  3 16  1  0  0  0  0
  4 17  1  0  0  0  0
  4 18  1  0  0  0  0
  4 19  1  0  0  0  0
  5  6  1  0  0  0  0
  5 20  1  0  0  0  0
  6  7  1  0  0  0  0
  6  8  2  0  0  0  0
  7 10  1  0  0  0  0
  7 21  1  0  0  0  0
  9 22  1  0  0  0  0
  9 23  1  0  0  0  0
  9 24  1  0  0  0  0
 10 11  1  0  0  0  0
 10 12  2  0  0  0  0
 11 25  1  0  0  0  0
 11 26  1  0  0  0  0
M  END
> <rseq>
1

> <mseq>
8

> <S>
-4.585121

> <rmsd_refine>
0.5621904

> <E_conf>
-173.7389

> <E_score1>
-5.648095

> <E_refine>
-20.53436

> <E_score2>
-4.585121

>  <$File>
outputs/pdb_4j58_cleaned.pdb_2024_06_17__22_47_40_V2_BS398_MIN1_/SDF/sdf_db.sdf

> <Rec_index>
1

>  <PLIF_raw>
[[7,11],[1504,1071],[101,71],[3,3],[0.5,0.6]]

> <FP:PLIF>
7 8

>  <PLIF_ligidx>
[11,7]

$$$$
8
  MOE2022           3D

 28 27  0  0  0  0  0  0  0  0999 V2000
    7.2890   20.7450   19.7390 C   0  0  0  0  0  0  0  0  0  0  0  0
    6.4740   20.9690   18.4540 C   0  0  0  0  0  0  0  0  0  0  0  0
    5.3700   19.9240   18.3860 C   0  0  0  0  0  0  0  0  0  0  0  0
    5.8440   22.3740   18.4880 C   0  0  0  0  0  0  0  0  0  0  0  0
    4.6240   19.6830   17.2840 C   0  0  0  0  0  0  0  0  0  0  0  0
    3.5660   18.6850   17.2010 C   0  0  0  0  0  0  0  0  0  0  0  0
    3.1470   18.0780   18.3810 N   0  0  0  0  0  0  0  0  0  0  0  0
    3.0660   18.3670   16.1290 O   0  0  0  0  0  0  0  0  0  0  0  0
    2.2190   17.0390   18.5520 C   0  0  0  0  0  0  0  0  0  0  0  0
    7.4320   20.8590   17.2480 C   0  0  0  0  0  0  0  0  0  0  0  0
    2.0840   16.5300   19.9680 C   0  0  0  0  0  0  0  0  0  0  0  0
    1.5430   16.5720   17.6000 N   0  0  0  0  0  0  0  0  0  0  0  0
    7.7530   19.7570   19.7300 H   0  0  0  0  0  0  0  0  0  0  0  0
    8.0810   21.4900   19.8290 H   0  0  0  0  0  0  0  0  0  0  0  0
    6.6580   20.8120   20.6240 H   0  0  0  0  0  0  0  0  0  0  0  0
    5.2060   19.3850   19.2830 H   0  0  0  0  0  0  0  0  0  0  0  0
    5.2970   22.5760   17.5670 H   0  0  0  0  0  0  0  0  0  0  0  0
    5.1430   22.4630   19.3180 H   0  0  0  0  0  0  0  0  0  0  0  0
    6.6100   23.1430   18.6010 H   0  0  0  0  0  0  0  0  0  0  0  0
    4.7920   20.2280   16.3920 H   0  0  0  0  0  0  0  0  0  0  0  0
    3.5870   18.4330   19.2420 H   0  0  0  0  0  0  0  0  0  0  0  0
    6.9190   21.0670   16.3100 H   0  0  0  0  0  0  0  0  0  0  0  0
    8.2510   21.5740   17.3400 H   0  0  0  0  0  0  0  0  0  0  0  0
    7.8680   19.8620   17.1890 H   0  0  0  0  0  0  0  0  0  0  0  0
    1.3600   17.1110   20.5190 H   0  0  0  0  0  0  0  0  0  0  0  0
    1.7480   15.5030   19.9820 H   0  0  0  0  0  0  0  0  0  0  0  0
    3.0220   16.5750   20.5030 H   0  0  0  0  0  0  0  0  0  0  0  0
    1.7500   17.0250   16.7300 H   0  0  0  0  0  0  0  0  0  0  0  0
  1  2  1  0  0  0  0
  1 13  1  0  0  0  0
  1 14  1  0  0  0  0
  1 15  1  0  0  0  0
  2  3  1  0  0  0  0
  2  4  1  0  0  0  0
  2 10  1  0  0  0  0
  3  5  2  0  0  0  0
  3 16  1  0  0  0  0
  4 17  1  0  0  0  0
  4 18  1  0  0  0  0
  4 19  1  0  0  0  0
  5  6  1  0  0  0  0
  5 20  1  0  0  0  0
  6  7  1  0  0  0  0
  6  8  2  0  0  0  0
  7  9  1  0  0  0  0
  7 21  1  0  0  0  0
  9 11  1  0  0  0  0
  9 12  2  0  0  0  0
 10 22  1  0  0  0  0
 10 23  1  0  0  0  0
 10 24  1  0  0  0  0
 11 25  1  0  0  0  0
 11 26  1  0  0  0  0
 11 27  1  0  0  0  0
 12 28  1  0  0  0  0
M  END
> <rseq>
1

> <mseq>
9

> <S>
-4.811471

> <rmsd_refine>
0.6305336

> <E_conf>
-128.8447

> <E_score1>
-5.618459

> <E_refine>
-19.13329

> <E_score2>
-4.811471

>  <$File>
outputs/pdb_4j58_cleaned.pdb_2024_06_17__22_47_40_V2_BS398_MIN1_/SDF/sdf_db.sdf

> <Rec_index>
1

>  <PLIF_raw>
[[],[],[],[],[]]

>  <PLIF_ligidx>
[]

$$$$
9
  MOE2022           3D

 21 21  0  0  0  0  0  0  0  0999 V2000
    5.8000   14.1360    9.1680 C   0  0  0  0  0  0  0  0  0  0  0  0
    5.7320   15.5190    9.0360 C   0  0  0  0  0  0  0  0  0  0  0  0
    4.9250   16.2610    9.8920 C   0  0  0  0  0  0  0  0  0  0  0  0
    4.1760   15.6310   10.8970 C   0  0  0  0  0  0  0  0  0  0  0  0
    5.0570   13.4950   10.1520 C   0  0  0  0  0  0  0  0  0  0  0  0
    3.3720   16.4360   11.8220 C   0  0  0  0  0  0  0  0  0  0  0  0
    3.4640   17.6550   11.8890 O   0  0  0  0  0  0  0  0  0  0  0  0
    4.2470   14.2320   11.0060 C   0  0  0  0  0  0  0  0  0  0  0  0
    2.4780   15.7690   12.6610 N   0  0  0  0  0  0  0  0  0  0  0  0
    1.8030   16.2840   13.7550 C   0  0  0  0  0  0  0  0  0  0  0  0
    0.8380   15.3360   14.4230 C   0  0  0  0  0  0  0  0  0  0  0  0
    1.9850   17.4170   14.1500 O   0  0  0  0  0  0  0  0  0  0  0  0
    6.4130   13.5680    8.5180 H   0  0  0  0  0  0  0  0  0  0  0  0
    6.2930   16.0080    8.2820 H   0  0  0  0  0  0  0  0  0  0  0  0
    4.8820   17.3140    9.7780 H   0  0  0  0  0  0  0  0  0  0  0  0
    5.1090   12.4410   10.2510 H   0  0  0  0  0  0  0  0  0  0  0  0
    3.6920   13.7210   11.7470 H   0  0  0  0  0  0  0  0  0  0  0  0
    2.3190   14.7710   12.4580 H   0  0  0  0  0  0  0  0  0  0  0  0
    0.5500   15.6860   15.4050 H   0  0  0  0  0  0  0  0  0  0  0  0
   -0.0620   15.2250   13.8340 H   0  0  0  0  0  0  0  0  0  0  0  0
    1.2650   14.3500   14.5300 H   0  0  0  0  0  0  0  0  0  0  0  0
  1  2  1  0  0  0  0
  1  5  2  0  0  0  0
  1 13  1  0  0  0  0
  2  3  2  0  0  0  0
  2 14  1  0  0  0  0
  3  4  1  0  0  0  0
  3 15  1  0  0  0  0
  4  6  1  0  0  0  0
  4  8  2  0  0  0  0
  5  8  1  0  0  0  0
  5 16  1  0  0  0  0
  6  7  2  0  0  0  0
  6  9  1  0  0  0  0
  8 17  1  0  0  0  0
  9 10  1  0  0  0  0
  9 18  1  0  0  0  0
 10 11  1  0  0  0  0
 10 12  2  0  0  0  0
 11 19  1  0  0  0  0
 11 20  1  0  0  0  0
 11 21  1  0  0  0  0
M  END
> <rseq>
1

> <mseq>
10

> <S>
-3.747391

> <rmsd_refine>
2.116742

> <E_conf>
-65.17403

> <E_score1>
-5.300933

> <E_refine>
-13.33419

> <E_score2>
-3.747391

>  <$File>
outputs/pdb_4j58_cleaned.pdb_2024_06_17__22_47_40_V2_BS398_MIN1_/SDF/sdf_db.sdf

> <Rec_index>
1

>  <PLIF_raw>
[[],[],[],[],[]]

>  <PLIF_ligidx>
[]

$$$$
10
  MOE2022           3D

 20 21  0  0  0  0  0  0  0  0999 V2000
    5.4390   14.0840    9.5130 C   0  0  0  0  0  0  0  0  0  0  0  0
    5.6460   15.4660    9.3470 C   0  0  0  0  0  0  0  0  0  0  0  0
    4.9100   16.3700   10.0730 C   0  0  0  0  0  0  0  0  0  0  0  0
    3.9290   15.9420   11.0110 C   0  0  0  0  0  0  0  0  0  0  0  0
    4.4880   13.6330   10.3940 C   0  0  0  0  0  0  0  0  0  0  0  0
    3.7090   14.5460   11.1520 C   0  0  0  0  0  0  0  0  0  0  0  0
    2.7250   14.0810   12.0580 C   0  0  0  0  0  0  0  0  0  0  0  0
    3.1790   16.8520   11.8340 C   0  0  0  0  0  0  0  0  0  0  0  0
    2.0180   14.9630   12.8350 C   0  0  0  0  0  0  0  0  0  0  0  0
    3.3730   18.3000   11.7800 C   0  0  0  0  0  0  0  0  0  0  0  0
    2.2510   16.3440   12.7280 C   0  0  0  0  0  0  0  0  0  0  0  0
    3.5510   18.9300   12.8580 O   0  5  0  0  0  0  0  0  0  0  0  0
    3.3490   18.9060   10.6760 O   0  0  0  0  0  0  0  0  0  0  0  0
    6.0190   13.3980    8.9510 H   0  0  0  0  0  0  0  0  0  0  0  0
    6.3730   15.8050    8.6540 H   0  0  0  0  0  0  0  0  0  0  0  0
    5.0850   17.4030    9.9290 H   0  0  0  0  0  0  0  0  0  0  0  0
    4.3310   12.5930   10.5170 H   0  0  0  0  0  0  0  0  0  0  0  0
    2.5400   13.0410   12.1380 H   0  0  0  0  0  0  0  0  0  0  0  0
    1.2930   14.6090   13.5210 H   0  0  0  0  0  0  0  0  0  0  0  0
    1.6970   17.0040   13.3460 H   0  0  0  0  0  0  0  0  0  0  0  0
  1  2  1  0  0  0  0
  1  5  2  0  0  0  0
  1 14  1  0  0  0  0
  2  3  2  0  0  0  0
  2 15  1  0  0  0  0
  3  4  1  0  0  0  0
  3 16  1  0  0  0  0
  4  6  2  0  0  0  0
  4  8  1  0  0  0  0
  5  6  1  0  0  0  0
  5 17  1  0  0  0  0
  6  7  1  0  0  0  0
  7  9  2  0  0  0  0
  7 18  1  0  0  0  0
  8 10  1  0  0  0  0
  8 11  2  0  0  0  0
  9 11  1  0  0  0  0
  9 19  1  0  0  0  0
 10 12  1  0  0  0  0
 10 13  2  0  0  0  0
 11 20  1  0  0  0  0
M  CHG  1  12  -1
M  END
> <rseq>
1

> <mseq>
11

> <S>
-3.602289

> <rmsd_refine>
1.045201

> <E_conf>
-61.78765

> <E_score1>
-7.02239

> <E_refine>
-12.59519

> <E_score2>
-3.602289

>  <$File>
outputs/pdb_4j58_cleaned.pdb_2024_06_17__22_47_40_V2_BS398_MIN1_/SDF/sdf_db.sdf

> <Rec_index>
1

>  <PLIF_raw>
[[12,12,12,13],[823,826,829,829],[54,54,54,54],[7,7,7,7],[2.374698537,1.578607489,2.622478006,1.212482412]]

> <FP:PLIF>
1

>  <PLIF_ligidx>
[[12,12,12,13]]

$$$$
11
  MOE2022           3D

 22 21  0  0  1  0  0  0  0  0999 V2000
    5.5300   20.2140   20.4140 O   0  0  0  0  0  0  0  0  0  0  0  0
    6.0990   20.0080   19.3190 C   0  0  0  0  0  0  0  0  0  0  0  0
    7.3190   19.7750   19.1770 O   0  5  0  0  0  0  0  0  0  0  0  0
    5.2290   20.0090   18.0540 C   0  0  1  0  0  0  0  0  0  0  0  0
    4.0160   19.2120   18.2560 N   0  0  0  0  0  0  0  0  0  0  0  0
    4.8600   21.4350   17.6160 C   0  0  0  0  0  0  0  0  0  0  0  0
    3.4680   18.3830   17.3590 C   0  0  0  0  0  0  0  0  0  0  0  0
    2.2770   17.5860   17.8410 C   0  0  0  0  0  0  0  0  0  0  0  0
    3.9310   18.2360   16.2280 O   0  0  0  0  0  0  0  0  0  0  0  0
    1.0920   17.6720   16.9090 C   0  0  0  0  0  0  0  0  0  0  0  0
    0.2750   18.7120   17.0750 N   0  0  0  0  0  0  0  0  0  0  0  0
    0.9050   16.8590   16.0090 O   0  0  0  0  0  0  0  0  0  0  0  0
    4.0880   22.1200   18.5870 O   0  0  0  0  0  0  0  0  0  0  0  0
    5.8170   19.5640   17.2520 H   0  0  0  0  0  0  0  0  0  0  0  0
    3.5980   19.2800   19.1750 H   0  0  0  0  0  0  0  0  0  0  0  0
    5.7750   21.9970   17.4290 H   0  0  0  0  0  0  0  0  0  0  0  0
    4.2900   21.3800   16.6880 H   0  0  0  0  0  0  0  0  0  0  0  0
    2.5750   16.5500   17.9380 H   0  0  0  0  0  0  0  0  0  0  0  0
    1.9870   17.9030   18.8340 H   0  0  0  0  0  0  0  0  0  0  0  0
   -0.5170   18.8190   16.4580 H   0  0  0  0  0  0  0  0  0  0  0  0
    0.4580   19.3950   17.7940 H   0  0  0  0  0  0  0  0  0  0  0  0
    3.4420   21.5050   18.9470 H   0  0  0  0  0  0  0  0  0  0  0  0
  1  2  2  0  0  0  0
  2  3  1  0  0  0  0
  2  4  1  0  0  0  0
  4  5  1  0  0  0  0
  4  6  1  0  0  0  0
  4 14  1  0  0  0  0
  5  7  1  0  0  0  0
  5 15  1  0  0  0  0
  6 13  1  0  0  0  0
  6 16  1  0  0  0  0
  6 17  1  0  0  0  0
  7  8  1  0  0  0  0
  7  9  2  0  0  0  0
  8 10  1  0  0  0  0
  8 18  1  0  0  0  0
  8 19  1  0  0  0  0
 10 11  1  0  0  0  0
 10 12  2  0  0  0  0
 11 20  1  0  0  0  0
 11 21  1  0  0  0  0
 13 22  1  0  0  0  0
M  CHG  1   3  -1
M  END
> <rseq>
1

> <mseq>
12

> <S>
-4.100192

> <rmsd_refine>
1.87456

> <E_conf>
-132.9901

> <E_score1>
-6.246447

> <E_refine>
-21.17142

> <E_score2>
-4.100192

>  <$File>
outputs/pdb_4j58_cleaned.pdb_2024_06_17__22_47_40_V2_BS398_MIN1_/SDF/sdf_db.sdf

> <Rec_index>
1

>  <PLIF_raw>
[[5,13,1,1,1],[1504,1504,1491,1499,1866],[101,101,100,101,125],[3,3,4,4,7],[2.2,0.7,0.5,4.1,1.155586223]]

> <FP:PLIF>
9 8 10 11 12 13

>  <PLIF_ligidx>
[1,[5,13],5,1,1,1]

$$$$
24
  MOE2022           3D

 27 27  0  0  0  0  0  0  0  0999 V2000
    5.3830   14.8460   10.2420 C   0  0  0  0  0  0  0  0  0  0  0  0
    5.4780   16.0910    9.6000 C   0  0  0  0  0  0  0  0  0  0  0  0
    4.3310   14.6000   11.1420 C   0  0  0  0  0  0  0  0  0  0  0  0
    4.5260   17.0900    9.8680 C   0  0  0  0  0  0  0  0  0  0  0  0
    3.4810   16.8460   10.7780 C   0  0  0  0  0  0  0  0  0  0  0  0
    3.3820   15.6000   11.4300 C   0  0  0  0  0  0  0  0  0  0  0  0
    2.2260   15.2950   12.3750 C   0  0  0  0  0  0  0  0  0  0  0  0
    1.8820   16.3680   13.4230 C   0  0  0  0  0  0  0  0  0  0  0  0
    3.0050   16.6010   14.4450 C   0  0  0  0  0  0  0  0  0  0  0  0
    3.4300   15.6490   15.0940 O   0  0  0  0  0  0  0  0  0  0  0  0
    3.4980   17.8300   14.6570 N   0  0  0  0  0  0  0  0  0  0  0  0
    3.1060   19.0780   14.0020 C   0  0  0  0  0  0  0  0  0  0  0  0
    4.0050   20.2490   14.4120 C   0  0  0  0  0  0  0  0  0  0  0  0
    4.4240   20.9910   13.4970 O   0  0  0  0  0  0  0  0  0  0  0  0
    4.2880   20.3700   15.6250 O   0  5  0  0  0  0  0  0  0  0  0  0
    6.1080   14.0720   10.0330 H   0  0  0  0  0  0  0  0  0  0  0  0
    6.2730   16.2730    8.8920 H   0  0  0  0  0  0  0  0  0  0  0  0
    4.2530   13.6300   11.6060 H   0  0  0  0  0  0  0  0  0  0  0  0
    4.5890   18.0440    9.3660 H   0  0  0  0  0  0  0  0  0  0  0  0
    2.7470   17.6180   10.9560 H   0  0  0  0  0  0  0  0  0  0  0  0
    1.3380   15.1270   11.7650 H   0  0  0  0  0  0  0  0  0  0  0  0
    2.4330   14.3620   12.9020 H   0  0  0  0  0  0  0  0  0  0  0  0
    1.6040   17.2870   12.9130 H   0  0  0  0  0  0  0  0  0  0  0  0
    1.0020   16.0380   13.9740 H   0  0  0  0  0  0  0  0  0  0  0  0
    4.2080   17.9270   15.3700 H   0  0  0  0  0  0  0  0  0  0  0  0
    3.1740   18.9560   12.9210 H   0  0  0  0  0  0  0  0  0  0  0  0
    2.0780   19.3200   14.2690 H   0  0  0  0  0  0  0  0  0  0  0  0
  1  2  2  0  0  0  0
  1  3  1  0  0  0  0
  1 16  1  0  0  0  0
  2  4  1  0  0  0  0
  2 17  1  0  0  0  0
  3  6  2  0  0  0  0
  3 18  1  0  0  0  0
  4  5  2  0  0  0  0
  4 19  1  0  0  0  0
  5  6  1  0  0  0  0
  5 20  1  0  0  0  0
  6  7  1  0  0  0  0
  7  8  1  0  0  0  0
  7 21  1  0  0  0  0
  7 22  1  0  0  0  0
  8  9  1  0  0  0  0
  8 23  1  0  0  0  0
  8 24  1  0  0  0  0
  9 10  2  0  0  0  0
  9 11  1  0  0  0  0
 11 12  1  0  0  0  0
 11 25  1  0  0  0  0
 12 13  1  0  0  0  0
 12 26  1  0  0  0  0
 12 27  1  0  0  0  0
 13 14  2  0  0  0  0
 13 15  1  0  0  0  0
M  CHG  1  15  -1
M  END
> <rseq>
1

> <mseq>
25

> <S>
-4.008471

> <rmsd_refine>
1.126059

> <E_conf>
-78.68583

> <E_score1>
-7.988266

> <E_refine>
-17.89677

> <E_score2>
-4.008471

>  <$File>
outputs/pdb_4j58_cleaned.pdb_2024_06_17__22_47_40_V2_BS398_MIN1_/SDF/sdf_db.sdf

> <Rec_index>
1

>  <PLIF_raw>
[[14,14,15],[826,829,826],[54,54,54],[7,7,7],[2.770167505,3.293615093,2.888032168]]

> <FP:PLIF>
1

>  <PLIF_ligidx>
[[14,14,15]]

$$$$
25
  MOE2022           3D

 30 31  0  0  0  0  0  0  0  0999 V2000
    7.3740   20.5920   19.0010 C   0  0  0  0  0  0  0  0  0  0  0  0
    8.3940   21.4090   18.5280 C   0  0  0  0  0  0  0  0  0  0  0  0
    6.1980   20.4080   18.2590 C   0  0  0  0  0  0  0  0  0  0  0  0
    5.1740   19.5130   18.7800 C   0  0  0  0  0  0  0  0  0  0  0  0
    4.1390   18.9880   18.0730 C   0  0  0  0  0  0  0  0  0  0  0  0
    8.2530   22.0630   17.3090 C   0  0  0  0  0  0  0  0  0  0  0  0
    3.2220   18.0070   18.6400 C   0  0  0  0  0  0  0  0  0  0  0  0
    2.1640   17.5350   17.8930 N   0  0  0  0  0  0  0  0  0  0  0  0
    3.3670   17.5440   19.7720 O   0  0  0  0  0  0  0  0  0  0  0  0
    6.0670   21.0820   17.0350 C   0  0  0  0  0  0  0  0  0  0  0  0
    7.0880   21.9010   16.5660 C   0  0  0  0  0  0  0  0  0  0  0  0
    1.8730   17.8130   16.4980 C   0  0  0  0  0  0  0  0  0  0  0  0
    1.1750   16.5970   18.3980 C   0  0  0  0  0  0  0  0  0  0  0  0
    0.0840   16.4600   17.3350 C   0  0  0  0  0  0  0  0  0  0  0  0
    0.8330   16.7900   16.0380 C   0  0  0  0  0  0  0  0  0  0  0  0
    7.4940   20.0940   19.9280 H   0  0  0  0  0  0  0  0  0  0  0  0
    9.2810   21.5300   19.0950 H   0  0  0  0  0  0  0  0  0  0  0  0
    5.2930   19.2400   19.7940 H   0  0  0  0  0  0  0  0  0  0  0  0
    3.9880   19.2580   17.0630 H   0  0  0  0  0  0  0  0  0  0  0  0
    9.0320   22.6830   16.9500 H   0  0  0  0  0  0  0  0  0  0  0  0
    5.1860   20.9770   16.4580 H   0  0  0  0  0  0  0  0  0  0  0  0
    6.9800   22.4070   15.6410 H   0  0  0  0  0  0  0  0  0  0  0  0
    1.4540   18.8170   16.4120 H   0  0  0  0  0  0  0  0  0  0  0  0
    2.7660   17.7320   15.8780 H   0  0  0  0  0  0  0  0  0  0  0  0
    1.6490   15.6290   18.5610 H   0  0  0  0  0  0  0  0  0  0  0  0
    0.7420   16.9500   19.3350 H   0  0  0  0  0  0  0  0  0  0  0  0
   -0.3410   15.4560   17.3170 H   0  0  0  0  0  0  0  0  0  0  0  0
   -0.6920   17.2070   17.5110 H   0  0  0  0  0  0  0  0  0  0  0  0
    0.1680   17.2000   15.2770 H   0  0  0  0  0  0  0  0  0  0  0  0
    1.3380   15.8960   15.6710 H   0  0  0  0  0  0  0  0  0  0  0  0
  1  2  2  0  0  0  0
  1  3  1  0  0  0  0
  1 16  1  0  0  0  0
  2  6  1  0  0  0  0
  2 17  1  0  0  0  0
  3  4  1  0  0  0  0
  3 10  2  0  0  0  0
  4  5  2  0  0  0  0
  4 18  1  0  0  0  0
  5  7  1  0  0  0  0
  5 19  1  0  0  0  0
  6 11  2  0  0  0  0
  6 20  1  0  0  0  0
  7  8  1  0  0  0  0
  7  9  2  0  0  0  0
  8 12  1  0  0  0  0
  8 13  1  0  0  0  0
 10 11  1  0  0  0  0
 10 21  1  0  0  0  0
 11 22  1  0  0  0  0
 12 15  1  0  0  0  0
 12 23  1  0  0  0  0
 12 24  1  0  0  0  0
 13 14  1  0  0  0  0
 13 25  1  0  0  0  0
 13 26  1  0  0  0  0
 14 15  1  0  0  0  0
 14 27  1  0  0  0  0
 14 28  1  0  0  0  0
 15 29  1  0  0  0  0
 15 30  1  0  0  0  0
M  END
> <rseq>
1

> <mseq>
26

> <S>
-4.772449

> <rmsd_refine>
0.9342582

> <E_conf>
-7.328674

> <E_score1>
-6.663455

> <E_refine>
-20.13479

> <E_score2>
-4.772449

>  <$File>
outputs/pdb_4j58_cleaned.pdb_2024_06_17__22_47_40_V2_BS398_MIN1_/SDF/sdf_db.sdf

> <Rec_index>
1

>  <PLIF_raw>
[[],[],[],[],[]]

>  <PLIF_ligidx>
[]

$$$$
26
  MOE2022           3D

 29 29  0  0  0  0  0  0  0  0999 V2000
    8.2790   20.1340   18.6840 C   0  0  0  0  0  0  0  0  0  0  0  0
    7.3140   21.2290   18.2770 C   0  0  0  0  0  0  0  0  0  0  0  0
    5.9250   21.1040   18.4320 C   0  0  0  0  0  0  0  0  0  0  0  0
    7.8400   22.3900   17.7100 C   0  0  0  0  0  0  0  0  0  0  0  0
    5.0970   22.1670   18.0630 C   0  0  0  0  0  0  0  0  0  0  0  0
    7.0030   23.4270   17.3160 C   0  0  0  0  0  0  0  0  0  0  0  0
    5.2660   19.8440   18.9680 C   0  0  0  0  0  0  0  0  0  0  0  0
    5.6320   23.3220   17.5060 C   0  0  0  0  0  0  0  0  0  0  0  0
    4.2250   19.3530   18.0750 N   0  0  0  0  0  0  0  0  0  0  0  0
    3.4100   18.3290   18.3550 C   0  0  0  0  0  0  0  0  0  0  0  0
    3.4810   17.6900   19.4040 O   0  0  0  0  0  0  0  0  0  0  0  0
    2.4580   17.9390   17.2510 C   0  0  0  0  0  0  0  0  0  0  0  0
    3.1680   17.2720   16.0960 C   0  0  0  0  0  0  0  0  0  0  0  0
    3.1910   15.9400   16.0820 N   0  0  0  0  0  0  0  0  0  0  0  0
    3.7620   17.9160   15.2360 O   0  0  0  0  0  0  0  0  0  0  0  0
    8.3010   19.3490   17.9300 H   0  0  0  0  0  0  0  0  0  0  0  0
    9.2920   20.5250   18.7900 H   0  0  0  0  0  0  0  0  0  0  0  0
    8.0030   19.6970   19.6430 H   0  0  0  0  0  0  0  0  0  0  0  0
    8.8870   22.4860   17.5710 H   0  0  0  0  0  0  0  0  0  0  0  0
    4.0480   22.0940   18.1960 H   0  0  0  0  0  0  0  0  0  0  0  0
    7.4090   24.2960   16.8700 H   0  0  0  0  0  0  0  0  0  0  0  0
    5.9870   19.0550   19.1180 H   0  0  0  0  0  0  0  0  0  0  0  0
    4.8500   20.0440   19.9450 H   0  0  0  0  0  0  0  0  0  0  0  0
    4.9940   24.1170   17.2180 H   0  0  0  0  0  0  0  0  0  0  0  0
    4.1520   19.7930   17.1690 H   0  0  0  0  0  0  0  0  0  0  0  0
    1.6900   17.2890   17.6480 H   0  0  0  0  0  0  0  0  0  0  0  0
    1.9570   18.8260   16.8850 H   0  0  0  0  0  0  0  0  0  0  0  0
    3.6600   15.4620   15.3280 H   0  0  0  0  0  0  0  0  0  0  0  0
    2.7130   15.4130   16.8000 H   0  0  0  0  0  0  0  0  0  0  0  0
  1  2  1  0  0  0  0
  1 16  1  0  0  0  0
  1 17  1  0  0  0  0
  1 18  1  0  0  0  0
  2  3  2  0  0  0  0
  2  4  1  0  0  0  0
  3  5  1  0  0  0  0
  3  7  1  0  0  0  0
  4  6  2  0  0  0  0
  4 19  1  0  0  0  0
  5  8  2  0  0  0  0
  5 20  1  0  0  0  0
  6  8  1  0  0  0  0
  6 21  1  0  0  0  0
  7  9  1  0  0  0  0
  7 22  1  0  0  0  0
  7 23  1  0  0  0  0
  8 24  1  0  0  0  0
  9 10  1  0  0  0  0
  9 25  1  0  0  0  0
 10 11  2  0  0  0  0
 10 12  1  0  0  0  0
 12 13  1  0  0  0  0
 12 26  1  0  0  0  0
 12 27  1  0  0  0  0
 13 14  1  0  0  0  0
 13 15  2  0  0  0  0
 14 28  1  0  0  0  0
 14 29  1  0  0  0  0
M  END
> <rseq>
1

> <mseq>
27

> <S>
-5.044929

> <rmsd_refine>
0.7874247

> <E_conf>
-116.9714

> <E_score1>
-6.448885

> <E_refine>
-20.37125

> <E_score2>
-5.044929

>  <$File>
outputs/pdb_4j58_cleaned.pdb_2024_06_17__22_47_40_V2_BS398_MIN1_/SDF/sdf_db.sdf

> <Rec_index>
1

>  <PLIF_raw>
[14,1071,71,3,1.6]

> <FP:PLIF>
7 14

>  <PLIF_ligidx>
[14,14]

$$$$
27
  MOE2022           3D

 33 34  0  0  0  0  0  0  0  0999 V2000
    7.4940   20.5810   19.0260 C   0  0  0  0  0  0  0  0  0  0  0  0
    8.5390   21.3980   18.6110 C   0  0  0  0  0  0  0  0  0  0  0  0
    6.3040   20.5090   18.2900 C   0  0  0  0  0  0  0  0  0  0  0  0
    5.2520   19.6090   18.7430 C   0  0  0  0  0  0  0  0  0  0  0  0
    4.1900   19.2000   18.0030 C   0  0  0  0  0  0  0  0  0  0  0  0
    8.4090   22.1620   17.4570 C   0  0  0  0  0  0  0  0  0  0  0  0
    3.2360   18.2050   18.4780 C   0  0  0  0  0  0  0  0  0  0  0  0
    2.1050   17.9080   17.7310 N   0  0  0  0  0  0  0  0  0  0  0  0
    3.4180   17.5750   19.5220 O   0  0  0  0  0  0  0  0  0  0  0  0
    6.1840   21.2940   17.1320 C   0  0  0  0  0  0  0  0  0  0  0  0
    7.2300   22.1120   16.7210 C   0  0  0  0  0  0  0  0  0  0  0  0
    1.6080   18.7850   16.6560 C   0  0  0  0  0  0  0  0  0  0  0  0
    1.5590   16.5370   17.7400 C   0  0  0  0  0  0  0  0  0  0  0  0
    0.0350   16.4790   17.5640 C   0  0  0  0  0  0  0  0  0  0  0  0
   -0.4420   17.2930   16.3570 C   0  0  0  0  0  0  0  0  0  0  0  0
    0.0800   18.7290   16.4880 C   0  0  0  0  0  0  0  0  0  0  0  0
    7.6060   19.9990   19.9040 H   0  0  0  0  0  0  0  0  0  0  0  0
    9.4370   21.4370   19.1720 H   0  0  0  0  0  0  0  0  0  0  0  0
    5.3710   19.2330   19.7240 H   0  0  0  0  0  0  0  0  0  0  0  0
    4.0510   19.5650   17.0220 H   0  0  0  0  0  0  0  0  0  0  0  0
    9.2070   22.7810   17.1410 H   0  0  0  0  0  0  0  0  0  0  0  0
    5.2930   21.2760   16.5620 H   0  0  0  0  0  0  0  0  0  0  0  0
    7.1310   22.7010   15.8460 H   0  0  0  0  0  0  0  0  0  0  0  0
    1.8850   19.8120   16.8450 H   0  0  0  0  0  0  0  0  0  0  0  0
    2.0820   18.5080   15.7240 H   0  0  0  0  0  0  0  0  0  0  0  0
    2.0250   15.9840   16.9360 H   0  0  0  0  0  0  0  0  0  0  0  0
    1.8260   16.0080   18.6440 H   0  0  0  0  0  0  0  0  0  0  0  0
   -0.2700   15.4390   17.4430 H   0  0  0  0  0  0  0  0  0  0  0  0
   -0.4320   16.8690   18.4670 H   0  0  0  0  0  0  0  0  0  0  0  0
   -0.0560   16.8460   15.4390 H   0  0  0  0  0  0  0  0  0  0  0  0
   -1.5320   17.2980   16.3200 H   0  0  0  0  0  0  0  0  0  0  0  0
   -0.3810   19.1950   17.3590 H   0  0  0  0  0  0  0  0  0  0  0  0
   -0.2020   19.3000   15.6030 H   0  0  0  0  0  0  0  0  0  0  0  0
  1  2  2  0  0  0  0
  1  3  1  0  0  0  0
  1 17  1  0  0  0  0
  2  6  1  0  0  0  0
  2 18  1  0  0  0  0
  3  4  1  0  0  0  0
  3 10  2  0  0  0  0
  4  5  2  0  0  0  0
  4 19  1  0  0  0  0
  5  7  1  0  0  0  0
  5 20  1  0  0  0  0
  6 11  2  0  0  0  0
  6 21  1  0  0  0  0
  7  8  1  0  0  0  0
  7  9  2  0  0  0  0
  8 12  1  0  0  0  0
  8 13  1  0  0  0  0
 10 11  1  0  0  0  0
 10 22  1  0  0  0  0
 11 23  1  0  0  0  0
 12 16  1  0  0  0  0
 12 24  1  0  0  0  0
 12 25  1  0  0  0  0
 13 14  1  0  0  0  0
 13 26  1  0  0  0  0
 13 27  1  0  0  0  0
 14 15  1  0  0  0  0
 14 28  1  0  0  0  0
 14 29  1  0  0  0  0
 15 16  1  0  0  0  0
 15 30  1  0  0  0  0
 15 31  1  0  0  0  0
 16 32  1  0  0  0  0
 16 33  1  0  0  0  0
M  END
> <rseq>
1

> <mseq>
28

> <S>
-4.85502

> <rmsd_refine>
0.9047112

> <E_conf>
-10.25896

> <E_score1>
-6.838277

> <E_refine>
-20.72239

> <E_score2>
-4.85502

>  <$File>
outputs/pdb_4j58_cleaned.pdb_2024_06_17__22_47_40_V2_BS398_MIN1_/SDF/sdf_db.sdf

> <Rec_index>
1

>  <PLIF_raw>
[[2,2,2,2,2,2],[1650,1653,1657,1659,1655,1651],[112,112,112,112,112,112],[10,10,10,10,10,10],[0.5,0.5,0.5,0.5,0.5,0.5]]

> <FP:PLIF>
15

>  <PLIF_ligidx>
[[2,2,2,2,2,2]]

$$$$
28
  MOE2022           3D

 36 36  0  0  0  0  0  0  0  0999 V2000
    2.0940   15.5000   21.8740 C   0  0  0  0  0  0  0  0  0  0  0  0
    1.4130   15.7040   20.5290 C   0  0  0  0  0  0  0  0  0  0  0  0
    1.6570   16.8620   19.9080 N   0  0  0  0  0  0  0  0  0  0  0  0
    0.6860   14.8260   20.0710 O   0  0  0  0  0  0  0  0  0  0  0  0
    1.2360   17.1740   18.5500 C   0  0  0  0  0  0  0  0  0  0  0  0
    2.4790   17.3430   17.6730 C   0  0  0  0  0  0  0  0  0  0  0  0
    2.1380   17.6150   16.1960 C   0  0  0  0  0  0  0  0  0  0  0  0
    3.3650   18.2160   15.4890 C   0  0  0  0  0  0  0  0  0  0  0  0
    1.6900   16.3260   15.4750 C   0  0  0  0  0  0  0  0  0  0  0  0
    1.4410   16.5610   13.9780 C   0  0  0  0  0  0  0  0  0  0  0  0
    2.6870   17.1460   13.2890 C   0  0  0  0  0  0  0  0  0  0  0  0
    3.0940   18.4520   13.9970 C   0  0  0  0  0  0  0  0  0  0  0  0
    2.4200   17.3720   11.7880 C   0  0  0  0  0  0  0  0  0  0  0  0
    3.6810   17.7520   11.0130 C   0  0  0  0  0  0  0  0  0  0  0  0
    4.4330   16.8200   10.6500 O   0  5  0  0  0  0  0  0  0  0  0  0
    3.8900   18.9670   10.8100 O   0  0  0  0  0  0  0  0  0  0  0  0
    2.1590   14.4380   22.1040 H   0  0  0  0  0  0  0  0  0  0  0  0
    3.1000   15.9120   21.8320 H   0  0  0  0  0  0  0  0  0  0  0  0
    1.5260   16.0060   22.6540 H   0  0  0  0  0  0  0  0  0  0  0  0
    2.2500   17.5390   20.3620 H   0  0  0  0  0  0  0  0  0  0  0  0
    0.6090   16.3770   18.1510 H   0  0  0  0  0  0  0  0  0  0  0  0
    0.6660   18.1040   18.5520 H   0  0  0  0  0  0  0  0  0  0  0  0
    3.0540   18.1820   18.0700 H   0  0  0  0  0  0  0  0  0  0  0  0
    3.0890   16.4420   17.7420 H   0  0  0  0  0  0  0  0  0  0  0  0
    1.3280   18.3460   16.1480 H   0  0  0  0  0  0  0  0  0  0  0  0
    3.6220   19.1700   15.9530 H   0  0  0  0  0  0  0  0  0  0  0  0
    4.2120   17.5410   15.5990 H   0  0  0  0  0  0  0  0  0  0  0  0
    2.4660   15.5660   15.5810 H   0  0  0  0  0  0  0  0  0  0  0  0
    0.7730   15.9470   15.9270 H   0  0  0  0  0  0  0  0  0  0  0  0
    1.1810   15.6100   13.5110 H   0  0  0  0  0  0  0  0  0  0  0  0
    0.6010   17.2470   13.8570 H   0  0  0  0  0  0  0  0  0  0  0  0
    3.4990   16.4240   13.3840 H   0  0  0  0  0  0  0  0  0  0  0  0
    2.2950   19.1880   13.8900 H   0  0  0  0  0  0  0  0  0  0  0  0
    3.9910   18.8600   13.5370 H   0  0  0  0  0  0  0  0  0  0  0  0
    2.0230   16.4540   11.3540 H   0  0  0  0  0  0  0  0  0  0  0  0
    1.6720   18.1560   11.6620 H   0  0  0  0  0  0  0  0  0  0  0  0
  1  2  1  0  0  0  0
  1 17  1  0  0  0  0
  1 18  1  0  0  0  0
  1 19  1  0  0  0  0
  2  3  1  0  0  0  0
  2  4  2  0  0  0  0
  3  5  1  0  0  0  0
  3 20  1  0  0  0  0
  5  6  1  0  0  0  0
  5 21  1  0  0  0  0
  5 22  1  0  0  0  0
  6  7  1  0  0  0  0
  6 23  1  0  0  0  0
  6 24  1  0  0  0  0
  7  8  1  0  0  0  0
  7  9  1  0  0  0  0
  7 25  1  0  0  0  0
  8 12  1  0  0  0  0
  8 26  1  0  0  0  0
  8 27  1  0  0  0  0
  9 10  1  0  0  0  0
  9 28  1  0  0  0  0
  9 29  1  0  0  0  0
 10 11  1  0  0  0  0
 10 30  1  0  0  0  0
 10 31  1  0  0  0  0
 11 12  1  0  0  0  0
 11 13  1  0  0  0  0
 11 32  1  0  0  0  0
 12 33  1  0  0  0  0
 12 34  1  0  0  0  0
 13 14  1  0  0  0  0
 13 35  1  0  0  0  0
 13 36  1  0  0  0  0
 14 15  1  0  0  0  0
 14 16  2  0  0  0  0
M  CHG  1  15  -1
M  END
> <rseq>
1

> <mseq>
29

> <S>
-5.114354

> <rmsd_refine>
1.683264

> <E_conf>
-163.328

> <E_score1>
-8.151898

> <E_refine>
-24.18116

> <E_score2>
-5.114354

>  <$File>
outputs/pdb_4j58_cleaned.pdb_2024_06_17__22_47_40_V2_BS398_MIN1_/SDF/sdf_db.sdf

> <Rec_index>
1

>  <PLIF_raw>
[[4,15,15,15,16,16],[1212,823,823,829,823,829],[81,54,54,54,54,54],[2,2,7,7,7,7],[6.3,1.4,4.947794325,1.193934385,1.327781325,3.555878972]]

> <FP:PLIF>
6 1 16 17 18

>  <PLIF_ligidx>
[15,[15,15,16,16],[15,16],4,4]

$$$$
29
  MOE2022           3D

 31 33  0  0  1  0  0  0  0  0999 V2000
    6.3470   20.7890   19.5380 C   0  0  0  0  0  0  0  0  0  0  0  0
    7.2120   21.8450   19.3700 C   0  0  0  0  0  0  0  0  0  0  0  0
    5.5080   20.3770   18.4750 C   0  0  0  0  0  0  0  0  0  0  0  0
    4.6030   19.2950   18.5820 C   0  0  0  0  0  0  0  0  0  0  0  0
    7.2700   22.5260   18.1370 C   0  0  0  0  0  0  0  0  0  0  0  0
    5.5730   21.0470   17.2390 C   0  0  0  0  0  0  0  0  0  0  0  0
    4.7450   20.5910   16.1800 C   0  0  0  0  0  0  0  0  0  0  0  0
    3.9440   19.5710   16.3050 N   0  0  0  0  0  0  0  0  0  0  0  0
    3.8500   18.9030   17.4990 C   0  0  0  0  0  0  0  0  0  0  0  0
    2.9160   17.6960   17.5310 C   0  0  1  0  0  0  0  0  0  0  0  0
    6.4660   22.1370   17.0910 C   0  0  0  0  0  0  0  0  0  0  0  0
    2.6810   17.0380   18.8710 C   0  0  0  0  0  0  0  0  0  0  0  0
    1.4080   16.6890   19.0530 C   0  0  0  0  0  0  0  0  0  0  0  0
    0.5630   17.0560   17.8640 C   0  0  0  0  0  0  0  0  0  0  0  0
    1.4780   17.9830   17.0430 C   0  0  0  0  0  0  0  0  0  0  0  0
    0.8730   15.9860   20.2790 C   0  0  0  0  0  0  0  0  0  0  0  0
    6.3090   20.2730   20.4610 H   0  0  0  0  0  0  0  0  0  0  0  0
    7.8430   22.1510   20.1630 H   0  0  0  0  0  0  0  0  0  0  0  0
    4.5300   18.7900   19.5070 H   0  0  0  0  0  0  0  0  0  0  0  0
    7.9410   23.3380   18.0220 H   0  0  0  0  0  0  0  0  0  0  0  0
    4.7790   21.0890   15.2450 H   0  0  0  0  0  0  0  0  0  0  0  0
    3.3330   16.9410   16.8790 H   0  0  0  0  0  0  0  0  0  0  0  0
    6.5130   22.6510   16.1650 H   0  0  0  0  0  0  0  0  0  0  0  0
    3.4520   16.8460   19.5710 H   0  0  0  0  0  0  0  0  0  0  0  0
    0.3170   16.1660   17.3010 H   0  0  0  0  0  0  0  0  0  0  0  0
   -0.3610   17.5470   18.1280 H   0  0  0  0  0  0  0  0  0  0  0  0
    1.2240   19.0170   17.2850 H   0  0  0  0  0  0  0  0  0  0  0  0
    1.3720   17.8180   15.9700 H   0  0  0  0  0  0  0  0  0  0  0  0
    0.4130   15.0450   20.0120 H   0  0  0  0  0  0  0  0  0  0  0  0
    1.6580   15.7770   20.9930 H   0  0  0  0  0  0  0  0  0  0  0  0
    0.1280   16.5880   20.7790 H   0  0  0  0  0  0  0  0  0  0  0  0
  1  2  1  0  0  0  0
  1  3  2  0  0  0  0
  1 17  1  0  0  0  0
  2  5  2  0  0  0  0
  2 18  1  0  0  0  0
  3  4  1  0  0  0  0
  3  6  1  0  0  0  0
  4  9  2  0  0  0  0
  4 19  1  0  0  0  0
  5 11  1  0  0  0  0
  5 20  1  0  0  0  0
  6  7  1  0  0  0  0
  6 11  2  0  0  0  0
  7  8  2  0  0  0  0
  7 21  1  0  0  0  0
  8  9  1  0  0  0  0
  9 10  1  0  0  0  0
 10 12  1  0  0  0  0
 10 15  1  0  0  0  0
 10 22  1  0  0  0  0
 11 23  1  0  0  0  0
 12 13  2  0  0  0  0
 12 24  1  0  0  0  0
 13 14  1  0  0  0  0
 13 16  1  0  0  0  0
 14 15  1  0  0  0  0
 14 25  1  0  0  0  0
 14 26  1  0  0  0  0
 15 27  1  0  0  0  0
 15 28  1  0  0  0  0
 16 29  1  0  0  0  0
 16 30  1  0  0  0  0
 16 31  1  0  0  0  0
M  END
> <rseq>
1

> <mseq>
30

> <S>
-4.995395

> <rmsd_refine>
0.7524326

> <E_conf>
29.48748

> <E_score1>
-7.139988

> <E_refine>
-19.28504

> <E_score2>
-4.995395

>  <$File>
outputs/pdb_4j58_cleaned.pdb_2024_06_17__22_47_40_V2_BS398_MIN1_/SDF/sdf_db.sdf

> <Rec_index>
1

>  <PLIF_raw>
[[],[],[],[],[]]

>  <PLIF_ligidx>
[]

$$$$
30
  MOE2022           3D

 28 28  0  0  0  0  0  0  0  0999 V2000
    7.4360   21.4160   19.7360 C   0  0  0  0  0  0  0  0  0  0  0  0
    6.6530   21.1960   18.4570 C   0  0  0  0  0  0  0  0  0  0  0  0
    7.0240   21.9260   17.3350 C   0  0  0  0  0  0  0  0  0  0  0  0
    6.3620   21.7600   16.1150 C   0  0  0  0  0  0  0  0  0  0  0  0
    5.5910   20.2860   18.3530 C   0  0  0  0  0  0  0  0  0  0  0  0
    5.2460   19.5600   19.4540 O   0  0  0  0  0  0  0  0  0  0  0  0
    4.8940   20.1070   17.1450 C   0  0  0  0  0  0  0  0  0  0  0  0
    6.8030   22.4860   14.9280 C   0  0  0  0  0  0  0  0  0  0  0  0
    5.2880   20.8630   16.0450 C   0  0  0  0  0  0  0  0  0  0  0  0
    3.7670   19.1050   16.8980 C   0  0  0  0  0  0  0  0  0  0  0  0
    6.8290   21.8860   13.8160 O   0  0  0  0  0  0  0  0  0  0  0  0
    7.1720   23.6840   15.0330 O   0  5  0  0  0  0  0  0  0  0  0  0
    3.0460   18.5740   18.0590 N   0  0  0  0  0  0  0  0  0  0  0  0
    2.6920   17.2870   18.1760 C   0  0  0  0  0  0  0  0  0  0  0  0
    2.9530   16.4350   17.3300 O   0  0  0  0  0  0  0  0  0  0  0  0
    1.9540   16.8920   19.4490 C   0  0  0  0  0  0  0  0  0  0  0  0
    8.5000   21.2760   19.5410 H   0  0  0  0  0  0  0  0  0  0  0  0
    7.2920   22.4350   20.0930 H   0  0  0  0  0  0  0  0  0  0  0  0
    7.1510   20.7310   20.5330 H   0  0  0  0  0  0  0  0  0  0  0  0
    7.8310   22.6110   17.3980 H   0  0  0  0  0  0  0  0  0  0  0  0
    4.5290   18.9410   19.2100 H   0  0  0  0  0  0  0  0  0  0  0  0
    4.7780   20.7480   15.1230 H   0  0  0  0  0  0  0  0  0  0  0  0
    3.0410   19.5630   16.2390 H   0  0  0  0  0  0  0  0  0  0  0  0
    4.1800   18.2920   16.3160 H   0  0  0  0  0  0  0  0  0  0  0  0
    2.7410   19.2330   18.7650 H   0  0  0  0  0  0  0  0  0  0  0  0
    2.5910   17.0840   20.3120 H   0  0  0  0  0  0  0  0  0  0  0  0
    1.0400   17.4780   19.5360 H   0  0  0  0  0  0  0  0  0  0  0  0
    1.7030   15.8320   19.4160 H   0  0  0  0  0  0  0  0  0  0  0  0
  1  2  1  0  0  0  0
  1 17  1  0  0  0  0
  1 18  1  0  0  0  0
  1 19  1  0  0  0  0
  2  3  2  0  0  0  0
  2  5  1  0  0  0  0
  3  4  1  0  0  0  0
  3 20  1  0  0  0  0
  4  8  1  0  0  0  0
  4  9  2  0  0  0  0
  5  6  1  0  0  0  0
  5  7  2  0  0  0  0
  6 21  1  0  0  0  0
  7  9  1  0  0  0  0
  7 10  1  0  0  0  0
  8 11  2  0  0  0  0
  8 12  1  0  0  0  0
  9 22  1  0  0  0  0
 10 13  1  0  0  0  0
 10 23  1  0  0  0  0
 10 24  1  0  0  0  0
 13 14  1  0  0  0  0
 13 25  1  0  0  0  0
 14 15  2  0  0  0  0
 14 16  1  0  0  0  0
 16 26  1  0  0  0  0
 16 27  1  0  0  0  0
 16 28  1  0  0  0  0
M  CHG  1  12  -1
M  END
> <rseq>
1

> <mseq>
31

> <S>
-4.791114

> <rmsd_refine>
1.699587

> <E_conf>
-138.4679

> <E_score1>
-6.587184

> <E_refine>
-29.53653

> <E_score2>
-4.791114

>  <$File>
outputs/pdb_4j58_cleaned.pdb_2024_06_17__22_47_40_V2_BS398_MIN1_/SDF/sdf_db.sdf

> <Rec_index>
1

>  <PLIF_raw>
[[13,11,11,15,11,11],[1504,826,829,954,826,829],[101,54,54,62,54,54],[3,2,2,2,7,7],[1.8,5.8,6.2,1,4.35693299,3.900010147]]

> <FP:PLIF>
6 19 1 16 20 8 10

>  <PLIF_ligidx>
[[11,11],[11,11],[11,11],[11,11],15,13,13]

$$$$
31
  MOE2022           3D

 29 31  0  0  1  0  0  0  0  0999 V2000
    5.7160   20.2140   19.2810 C   0  0  0  0  0  0  0  0  0  0  0  0
    6.5650   21.2150   18.8710 C   0  0  0  0  0  0  0  0  0  0  0  0
    4.8260   19.6080   18.3610 C   0  0  0  0  0  0  0  0  0  0  0  0
    3.9400   18.5650   18.7190 C   0  0  0  0  0  0  0  0  0  0  0  0
    6.5480   21.6530   17.5310 C   0  0  0  0  0  0  0  0  0  0  0  0
    4.8150   20.0340   17.0210 C   0  0  0  0  0  0  0  0  0  0  0  0
    3.9340   19.3870   16.1150 C   0  0  0  0  0  0  0  0  0  0  0  0
    3.1400   18.4180   16.4780 N   0  0  0  0  0  0  0  0  0  0  0  0
    3.1140   17.9910   17.7800 C   0  0  0  0  0  0  0  0  0  0  0  0
    2.1820   16.8240   18.1040 C   0  0  1  0  0  0  0  0  0  0  0  0
    5.6880   21.0780   16.6230 C   0  0  0  0  0  0  0  0  0  0  0  0
    1.9060   16.5580   19.5950 C   0  0  0  0  0  0  0  0  0  0  0  0
    0.5720   15.8690   19.6450 C   0  0  0  0  0  0  0  0  0  0  0  0
   -0.1250   16.0130   18.3180 C   0  0  0  0  0  0  0  0  0  0  0  0
    0.7810   16.9280   17.4810 C   0  0  0  0  0  0  0  0  0  0  0  0
    0.1340   15.2950   20.6010 O   0  0  0  0  0  0  0  0  0  0  0  0
    5.7260   19.8870   20.2870 H   0  0  0  0  0  0  0  0  0  0  0  0
    7.2370   21.6630   19.5570 H   0  0  0  0  0  0  0  0  0  0  0  0
    3.9430   18.2240   19.7200 H   0  0  0  0  0  0  0  0  0  0  0  0
    7.2040   22.4290   17.2300 H   0  0  0  0  0  0  0  0  0  0  0  0
    3.9170   19.6950   15.1010 H   0  0  0  0  0  0  0  0  0  0  0  0
    2.6600   15.9240   17.7160 H   0  0  0  0  0  0  0  0  0  0  0  0
    5.6740   21.4140   15.6190 H   0  0  0  0  0  0  0  0  0  0  0  0
    2.6870   15.9840   20.0710 H   0  0  0  0  0  0  0  0  0  0  0  0
    1.8150   17.4860   20.1320 H   0  0  0  0  0  0  0  0  0  0  0  0
   -0.2190   15.0430   17.8500 H   0  0  0  0  0  0  0  0  0  0  0  0
   -1.1210   16.4190   18.4220 H   0  0  0  0  0  0  0  0  0  0  0  0
    0.4230   17.9550   17.5770 H   0  0  0  0  0  0  0  0  0  0  0  0
    0.7870   16.6350   16.4300 H   0  0  0  0  0  0  0  0  0  0  0  0
  1  2  1  0  0  0  0
  1  3  2  0  0  0  0
  1 17  1  0  0  0  0
  2  5  2  0  0  0  0
  2 18  1  0  0  0  0
  3  4  1  0  0  0  0
  3  6  1  0  0  0  0
  4  9  2  0  0  0  0
  4 19  1  0  0  0  0
  5 11  1  0  0  0  0
  5 20  1  0  0  0  0
  6  7  1  0  0  0  0
  6 11  2  0  0  0  0
  7  8  2  0  0  0  0
  7 21  1  0  0  0  0
  8  9  1  0  0  0  0
  9 10  1  0  0  0  0
 10 12  1  0  0  0  0
 10 15  1  0  0  0  0
 10 22  1  0  0  0  0
 11 23  1  0  0  0  0
 12 13  1  0  0  0  0
 12 24  1  0  0  0  0
 12 25  1  0  0  0  0
 13 14  1  0  0  0  0
 13 16  2  0  0  0  0
 14 15  1  0  0  0  0
 14 26  1  0  0  0  0
 14 27  1  0  0  0  0
 15 28  1  0  0  0  0
 15 29  1  0  0  0  0
M  END
> <rseq>
1

> <mseq>
32

> <S>
-4.708289

> <rmsd_refine>
1.197487

> <E_conf>
4.856389

> <E_score1>
-7.108211

> <E_refine>
-23.11007

> <E_score2>
-4.708289

>  <$File>
outputs/pdb_4j58_cleaned.pdb_2024_06_17__22_47_40_V2_BS398_MIN1_/SDF/sdf_db.sdf

> <Rec_index>
1

>  <PLIF_raw>
[[16,16,3,6,7,8,9,4],[1206,1212,954,954,954,954,954,954],[81,81,62,62,62,62,62,62],[2,2,10,10,10,10,10,10],[1.5,2.6,0.9,0.9,0.9,0.9,0.9,0.9]]

> <FP:PLIF>
21 17 18

>  <PLIF_ligidx>
[[3,6,7,8,9,4],[16,16],[16,16]]

$$$$
32
  MOE2022           3D

 31 32  0  0  1  0  0  0  0  0999 V2000
    1.8320   16.3490   20.6280 C   0  0  0  0  0  0  0  0  0  0  0  0
    2.5580   16.7200   19.5030 C   0  0  0  0  0  0  0  0  0  0  0  0
    1.9650   16.6840   18.2350 C   0  0  0  0  0  0  0  0  0  0  0  0
    2.7210   17.0760   17.0510 C   0  0  0  0  0  0  0  0  0  0  0  0
    0.5040   15.9550   20.5010 C   0  0  0  0  0  0  0  0  0  0  0  0
    0.6330   16.2720   18.1160 C   0  0  0  0  0  0  0  0  0  0  0  0
   -0.0930   15.9110   19.2440 C   0  0  0  0  0  0  0  0  0  0  0  0
    3.3620   16.2530   16.4000 O   0  0  0  0  0  0  0  0  0  0  0  0
    2.7280   18.4050   16.6470 N   0  0  0  0  0  0  0  0  0  0  0  0
    1.8820   19.4340   17.2880 C   0  0  0  0  0  0  0  0  0  0  0  0
    2.5690   20.8100   17.4050 C   0  0  2  0  0  0  0  0  0  0  0  0
    3.3590   18.8220   15.3830 C   0  0  0  0  0  0  0  0  0  0  0  0
    4.0730   20.1760   15.4990 C   0  0  0  0  0  0  0  0  0  0  0  0
    1.6360   21.7650   17.8770 O   0  0  0  0  0  0  0  0  0  0  0  0
    3.1610   21.2730   16.0620 C   0  0  2  0  0  0  0  0  0  0  0  0
    3.9330   22.4470   16.2310 O   0  0  0  0  0  0  0  0  0  0  0  0
    2.2900   16.3690   21.5830 H   0  0  0  0  0  0  0  0  0  0  0  0
    3.5640   17.0320   19.6060 H   0  0  0  0  0  0  0  0  0  0  0  0
   -0.0560   15.6930   21.3590 H   0  0  0  0  0  0  0  0  0  0  0  0
    0.1770   16.2350   17.1600 H   0  0  0  0  0  0  0  0  0  0  0  0
   -1.1030   15.6050   19.1470 H   0  0  0  0  0  0  0  0  0  0  0  0
    0.9690   19.5410   16.7170 H   0  0  0  0  0  0  0  0  0  0  0  0
    1.5650   19.1310   18.2740 H   0  0  0  0  0  0  0  0  0  0  0  0
    3.3780   20.7170   18.1310 H   0  0  0  0  0  0  0  0  0  0  0  0
    4.0710   18.0870   15.0350 H   0  0  0  0  0  0  0  0  0  0  0  0
    2.6010   18.8800   14.6130 H   0  0  0  0  0  0  0  0  0  0  0  0
    4.9330   20.0550   16.1600 H   0  0  0  0  0  0  0  0  0  0  0  0
    4.4250   20.4750   14.5120 H   0  0  0  0  0  0  0  0  0  0  0  0
    0.9320   21.8590   17.2310 H   0  0  0  0  0  0  0  0  0  0  0  0
    2.3490   21.4660   15.3590 H   0  0  0  0  0  0  0  0  0  0  0  0
    4.1050   22.8310   15.3690 H   0  0  0  0  0  0  0  0  0  0  0  0
  1  2  1  0  0  0  0
  1  5  2  0  0  0  0
  1 17  1  0  0  0  0
  2  3  2  0  0  0  0
  2 18  1  0  0  0  0
  3  4  1  0  0  0  0
  3  6  1  0  0  0  0
  4  8  2  0  0  0  0
  4  9  1  0  0  0  0
  5  7  1  0  0  0  0
  5 19  1  0  0  0  0
  6  7  2  0  0  0  0
  6 20  1  0  0  0  0
  7 21  1  0  0  0  0
  9 10  1  0  0  0  0
  9 12  1  0  0  0  0
 10 11  1  0  0  0  0
 10 22  1  0  0  0  0
 10 23  1  0  0  0  0
 11 14  1  0  0  0  0
 11 15  1  0  0  0  0
 11 24  1  0  0  0  0
 12 13  1  0  0  0  0
 12 25  1  0  0  0  0
 12 26  1  0  0  0  0
 13 15  1  0  0  0  0
 13 27  1  0  0  0  0
 13 28  1  0  0  0  0
 14 29  1  0  0  0  0
 15 16  1  0  0  0  0
 15 30  1  0  0  0  0
 16 31  1  0  0  0  0
M  END
> <rseq>
1

> <mseq>
33

> <S>
-4.603863

> <rmsd_refine>
1.062795

> <E_conf>
29.88573

> <E_score1>
-7.46468

> <E_refine>
-19.34591

> <E_score2>
-4.603863

>  <$File>
outputs/pdb_4j58_cleaned.pdb_2024_06_17__22_47_40_V2_BS398_MIN1_/SDF/sdf_db.sdf

> <Rec_index>
1

>  <PLIF_raw>
[[8,1,2,3,6,7,5],[954,1519,1519,1519,1519,1519,1519],[62,102,102,102,102,102,102],[2,10,10,10,10,10,10],[0.7,0.6,0.6,0.6,0.6,0.6,0.6]]

> <FP:PLIF>
20 22

>  <PLIF_ligidx>
[8,[1,2,3,6,7,5]]

$$$$
33
  MOE2022           3D

 27 28  0  0  0  0  0  0  0  0999 V2000
    7.5820   20.5350   18.9120 C   0  0  0  0  0  0  0  0  0  0  0  0
    8.6460   21.3640   18.6560 C   0  0  0  0  0  0  0  0  0  0  0  0
    6.4450   20.5410   18.0620 C   0  0  0  0  0  0  0  0  0  0  0  0
    5.3560   19.6650   18.2750 C   0  0  0  0  0  0  0  0  0  0  0  0
    4.2850   19.6210   17.3990 C   0  0  0  0  0  0  0  0  0  0  0  0
    8.6170   22.2370   17.5500 C   0  0  0  0  0  0  0  0  0  0  0  0
    3.2480   18.6000   17.5650 C   0  0  0  0  0  0  0  0  0  0  0  0
    2.4150   18.3420   16.5030 N   0  0  0  0  0  0  0  0  0  0  0  0
    3.1270   17.9270   18.5870 O   0  0  0  0  0  0  0  0  0  0  0  0
    7.5240   22.2730   16.7200 C   0  0  0  0  0  0  0  0  0  0  0  0
    6.4150   21.4240   16.9560 C   0  0  0  0  0  0  0  0  0  0  0  0
    1.9930   16.9700   16.1940 C   0  0  0  0  0  0  0  0  0  0  0  0
    3.0400   16.2190   15.3960 C   0  0  0  0  0  0  0  0  0  0  0  0
    3.9250   15.6090   16.0330 O   0  0  0  0  0  0  0  0  0  0  0  0
    3.0110   16.3240   14.1500 O   0  5  0  0  0  0  0  0  0  0  0  0
    5.2820   21.4220   16.1060 C   0  0  0  0  0  0  0  0  0  0  0  0
    4.2480   20.5450   16.3170 C   0  0  0  0  0  0  0  0  0  0  0  0
    7.6080   19.8770   19.7410 H   0  0  0  0  0  0  0  0  0  0  0  0
    9.4990   21.3540   19.2830 H   0  0  0  0  0  0  0  0  0  0  0  0
    5.3880   19.0080   19.1040 H   0  0  0  0  0  0  0  0  0  0  0  0
    9.4490   22.8620   17.3640 H   0  0  0  0  0  0  0  0  0  0  0  0
    2.5250   18.9400   15.6710 H   0  0  0  0  0  0  0  0  0  0  0  0
    7.5070   22.9340   15.8920 H   0  0  0  0  0  0  0  0  0  0  0  0
    1.7740   16.4320   17.1060 H   0  0  0  0  0  0  0  0  0  0  0  0
    1.0730   17.0110   15.6270 H   0  0  0  0  0  0  0  0  0  0  0  0
    5.2420   22.1030   15.2950 H   0  0  0  0  0  0  0  0  0  0  0  0
    3.4160   20.5570   15.6610 H   0  0  0  0  0  0  0  0  0  0  0  0
  1  2  2  0  0  0  0
  1  3  1  0  0  0  0
  1 18  1  0  0  0  0
  2  6  1  0  0  0  0
  2 19  1  0  0  0  0
  3  4  2  0  0  0  0
  3 11  1  0  0  0  0
  4  5  1  0  0  0  0
  4 20  1  0  0  0  0
  5  7  1  0  0  0  0
  5 17  2  0  0  0  0
  6 10  2  0  0  0  0
  6 21  1  0  0  0  0
  7  8  1  0  0  0  0
  7  9  2  0  0  0  0
  8 12  1  0  0  0  0
  8 22  1  0  0  0  0
 10 11  1  0  0  0  0
 10 23  1  0  0  0  0
 11 16  2  0  0  0  0
 12 13  1  0  0  0  0
 12 24  1  0  0  0  0
 12 25  1  0  0  0  0
 13 14  2  0  0  0  0
 13 15  1  0  0  0  0
 16 17  1  0  0  0  0
 16 26  1  0  0  0  0
 17 27  1  0  0  0  0
M  CHG  1  15  -1
M  END
> <rseq>
1

> <mseq>
34

> <S>
-4.953069

> <rmsd_refine>
2.451177

> <E_conf>
-35.11699

> <E_score1>
-6.774363

> <E_refine>
-22.09773

> <E_score2>
-4.953069

>  <$File>
outputs/pdb_4j58_cleaned.pdb_2024_06_17__22_47_40_V2_BS398_MIN1_/SDF/sdf_db.sdf

> <Rec_index>
1

>  <PLIF_raw>
[[14,15,2,2,2,2,2,2],[954,823,1650,1653,1657,1659,1655,1651],[62,54,112,112,112,112,112,112],[2,7,10,10,10,10,10,10],[0.9,0.8872633743,0.7,0.7,0.7,0.7,0.7,0.7]]

> <FP:PLIF>
1 20 15

>  <PLIF_ligidx>
[15,14,[2,2,2,2,2,2]]

$$$$
34
  MOE2022           3D

 37 37  0  0  0  0  0  0  0  0999 V2000
    1.8400   16.2100   20.8250 C   0  0  0  0  0  0  0  0  0  0  0  0
    1.3660   16.3940   19.3910 C   0  0  0  0  0  0  0  0  0  0  0  0
    1.9290   17.3860   18.6830 N   0  0  0  0  0  0  0  0  0  0  0  0
    0.5180   15.6290   18.9390 O   0  0  0  0  0  0  0  0  0  0  0  0
    1.6550   17.6380   17.2720 C   0  0  0  0  0  0  0  0  0  0  0  0
    2.5950   16.7840   16.4100 C   0  0  0  0  0  0  0  0  0  0  0  0
    2.2120   16.7590   14.9140 C   0  0  0  0  0  0  0  0  0  0  0  0
    2.8690   17.9170   14.1330 C   0  0  0  0  0  0  0  0  0  0  0  0
    2.6300   15.4070   14.3050 C   0  0  0  0  0  0  0  0  0  0  0  0
    2.3750   15.3210   12.7970 C   0  0  0  0  0  0  0  0  0  0  0  0
    3.0420   16.4650   12.0590 C   0  0  0  0  0  0  0  0  0  0  0  0
    2.6500   17.8230   12.6100 C   0  0  0  0  0  0  0  0  0  0  0  0
    3.9030   16.3240   11.0350 C   0  0  0  0  0  0  0  0  0  0  0  0
    4.3780   14.9930   10.4660 C   0  0  0  0  0  0  0  0  0  0  0  0
    5.6930   15.0460    9.7140 C   0  0  0  0  0  0  0  0  0  0  0  0
    5.8460   14.2550    8.7570 O   0  5  0  0  0  0  0  0  0  0  0  0
    6.5690   15.8400   10.1210 O   0  0  0  0  0  0  0  0  0  0  0  0
    1.9080   15.1470   21.0530 H   0  0  0  0  0  0  0  0  0  0  0  0
    2.8230   16.6620   20.9600 H   0  0  0  0  0  0  0  0  0  0  0  0
    1.1220   16.6770   21.4970 H   0  0  0  0  0  0  0  0  0  0  0  0
    2.5910   17.9950   19.1390 H   0  0  0  0  0  0  0  0  0  0  0  0
    0.6180   17.3810   17.0500 H   0  0  0  0  0  0  0  0  0  0  0  0
    1.8110   18.6940   17.0500 H   0  0  0  0  0  0  0  0  0  0  0  0
    3.6180   17.1390   16.5260 H   0  0  0  0  0  0  0  0  0  0  0  0
    2.5570   15.7700   16.7980 H   0  0  0  0  0  0  0  0  0  0  0  0
    1.1280   16.8400   14.8180 H   0  0  0  0  0  0  0  0  0  0  0  0
    2.4720   18.8670   14.4910 H   0  0  0  0  0  0  0  0  0  0  0  0
    3.9440   17.9050   14.3170 H   0  0  0  0  0  0  0  0  0  0  0  0
    3.6910   15.2370   14.4880 H   0  0  0  0  0  0  0  0  0  0  0  0
    2.0610   14.6110   14.7810 H   0  0  0  0  0  0  0  0  0  0  0  0
    2.6810   14.3500   12.4380 H   0  0  0  0  0  0  0  0  0  0  0  0
    1.3090   15.3610   12.6150 H   0  0  0  0  0  0  0  0  0  0  0  0
    1.6080   18.0090   12.3850 H   0  0  0  0  0  0  0  0  0  0  0  0
    3.2030   18.6110   12.1160 H   0  0  0  0  0  0  0  0  0  0  0  0
    4.3110   17.1760   10.5530 H   0  0  0  0  0  0  0  0  0  0  0  0
    4.5000   14.2670   11.2560 H   0  0  0  0  0  0  0  0  0  0  0  0
    3.6120   14.5950    9.8150 H   0  0  0  0  0  0  0  0  0  0  0  0
  1  2  1  0  0  0  0
  1 18  1  0  0  0  0
  1 19  1  0  0  0  0
  1 20  1  0  0  0  0
  2  3  1  0  0  0  0
  2  4  2  0  0  0  0
  3  5  1  0  0  0  0
  3 21  1  0  0  0  0
  5  6  1  0  0  0  0
  5 22  1  0  0  0  0
  5 23  1  0  0  0  0
  6  7  1  0  0  0  0
  6 24  1  0  0  0  0
  6 25  1  0  0  0  0
  7  8  1  0  0  0  0
  7  9  1  0  0  0  0
  7 26  1  0  0  0  0
  8 12  1  0  0  0  0
  8 27  1  0  0  0  0
  8 28  1  0  0  0  0
  9 10  1  0  0  0  0
  9 29  1  0  0  0  0
  9 30  1  0  0  0  0
 10 11  1  0  0  0  0
 10 31  1  0  0  0  0
 10 32  1  0  0  0  0
 11 12  1  0  0  0  0
 11 13  2  0  0  0  0
 12 33  1  0  0  0  0
 12 34  1  0  0  0  0
 13 14  1  0  0  0  0
 13 35  1  0  0  0  0
 14 15  1  0  0  0  0
 14 36  1  0  0  0  0
 14 37  1  0  0  0  0
 15 16  1  0  0  0  0
 15 17  2  0  0  0  0
M  CHG  1  16  -1
M  END
> <rseq>
1

> <mseq>
35

> <S>
-5.276321

> <rmsd_refine>
0.7626351

> <E_conf>
-137.5932

> <E_score1>
-8.45145

> <E_refine>
-26.21931

> <E_score2>
-5.276321

>  <$File>
outputs/pdb_4j58_cleaned.pdb_2024_06_17__22_47_40_V2_BS398_MIN1_/SDF/sdf_db.sdf

> <Rec_index>
1

>  <PLIF_raw>
[[17,17],[823,823],[54,54],[2,7],[7.9,4.805254841]]

> <FP:PLIF>
6 19 1 16

>  <PLIF_ligidx>
[17,17,17,17]

$$$$
35
  MOE2022           3D

 35 36  0  0  1  0  0  0  0  0999 V2000
    7.3110   21.1840   19.2740 C   0  0  0  0  0  0  0  0  0  0  0  0
    6.5650   20.0360   19.0370 C   0  0  0  0  0  0  0  0  0  0  0  0
    5.2760   20.1490   18.5170 C   0  0  0  0  0  0  0  0  0  0  0  0
    4.5830   18.9790   18.2870 O   0  0  0  0  0  0  0  0  0  0  0  0
    3.2140   18.8570   17.8060 C   0  0  1  0  0  0  0  0  0  0  0  0
    4.7260   21.4030   18.2400 C   0  0  0  0  0  0  0  0  0  0  0  0
    6.7710   22.4370   18.9990 C   0  0  0  0  0  0  0  0  0  0  0  0
    5.4800   22.5460   18.4850 C   0  0  0  0  0  0  0  0  0  0  0  0
    3.0890   19.0040   16.2960 C   0  0  0  0  0  0  0  0  0  0  0  0
    4.0590   19.2380   15.5770 O   0  0  0  0  0  0  0  0  0  0  0  0
    2.5780   17.5150   18.2240 C   0  0  2  0  0  0  0  0  0  0  0  0
    1.0750   17.5080   17.8580 C   0  0  1  0  0  0  0  0  0  0  0  0
    1.8590   18.7560   15.7910 N   0  0  0  0  0  0  0  0  0  0  0  0
    1.5600   18.9320   14.3650 C   0  0  0  0  0  0  0  0  0  0  0  0
    0.7330   18.4830   16.7030 C   0  0  0  0  0  0  0  0  0  0  0  0
    2.7990   17.2020   19.6530 N   0  0  0  0  0  0  0  0  0  0  0  0
    0.6260   16.1210   17.6280 N   0  3  0  0  0  0  0  0  0  0  0  0
    8.2950   21.1070   19.6590 H   0  0  0  0  0  0  0  0  0  0  0  0
    6.9750   19.0830   19.2460 H   0  0  0  0  0  0  0  0  0  0  0  0
    2.6340   19.6420   18.2660 H   0  0  0  0  0  0  0  0  0  0  0  0
    3.7500   21.4960   17.8420 H   0  0  0  0  0  0  0  0  0  0  0  0
    7.3440   23.3080   19.1760 H   0  0  0  0  0  0  0  0  0  0  0  0
    5.0750   23.5020   18.2750 H   0  0  0  0  0  0  0  0  0  0  0  0
    3.0810   16.7480   17.6330 H   0  0  0  0  0  0  0  0  0  0  0  0
    0.5330   17.8760   18.7300 H   0  0  0  0  0  0  0  0  0  0  0  0
    0.8300   18.2120   14.0220 H   0  0  0  0  0  0  0  0  0  0  0  0
    1.1620   19.9180   14.1700 H   0  0  0  0  0  0  0  0  0  0  0  0
    2.4370   18.8070   13.7440 H   0  0  0  0  0  0  0  0  0  0  0  0
   -0.1270   18.1180   16.1580 H   0  0  0  0  0  0  0  0  0  0  0  0
    0.4110   19.4220   17.1340 H   0  0  0  0  0  0  0  0  0  0  0  0
    2.4100   17.9260   20.2410 H   0  0  0  0  0  0  0  0  0  0  0  0
    2.4260   16.2950   19.8960 H   0  0  0  0  0  0  0  0  0  0  0  0
    0.8360   15.5530   18.4350 H   0  0  0  0  0  0  0  0  0  0  0  0
   -0.3690   16.1040   17.4520 H   0  0  0  0  0  0  0  0  0  0  0  0
    1.1100   15.7310   16.8300 H   0  0  0  0  0  0  0  0  0  0  0  0
  1  2  1  0  0  0  0
  1  7  2  0  0  0  0
  1 18  1  0  0  0  0
  2  3  2  0  0  0  0
  2 19  1  0  0  0  0
  3  4  1  0  0  0  0
  3  6  1  0  0  0  0
  4  5  1  0  0  0  0
  5  9  1  0  0  0  0
  5 11  1  0  0  0  0
  5 20  1  0  0  0  0
  6  8  2  0  0  0  0
  6 21  1  0  0  0  0
  7  8  1  0  0  0  0
  7 22  1  0  0  0  0
  8 23  1  0  0  0  0
  9 10  2  0  0  0  0
  9 13  1  0  0  0  0
 11 12  1  0  0  0  0
 11 16  1  0  0  0  0
 11 24  1  0  0  0  0
 12 15  1  0  0  0  0
 12 17  1  0  0  0  0
 12 25  1  0  0  0  0
 13 14  1  0  0  0  0
 13 15  1  0  0  0  0
 14 26  1  0  0  0  0
 14 27  1  0  0  0  0
 14 28  1  0  0  0  0
 15 29  1  0  0  0  0
 15 30  1  0  0  0  0
 16 31  1  0  0  0  0
 16 32  1  0  0  0  0
 17 33  1  0  0  0  0
 17 34  1  0  0  0  0
 17 35  1  0  0  0  0
M  CHG  1  17   1
M  END
> <rseq>
1

> <mseq>
36

> <S>
-4.648625

> <rmsd_refine>
1.187656

> <E_conf>
41.78279

> <E_score1>
-8.065903

> <E_refine>
-19.84537

> <E_score2>
-4.648625

>  <$File>
outputs/pdb_4j58_cleaned.pdb_2024_06_17__22_47_40_V2_BS398_MIN1_/SDF/sdf_db.sdf

> <Rec_index>
1

>  <PLIF_raw>
[[],[],[],[],[]]

>  <PLIF_ligidx>
[]

$$$$
72
  MOE2022           3D

 31 32  0  0  0  0  0  0  0  0999 V2000
    6.5040   20.1600   19.2740 C   0  0  0  0  0  0  0  0  0  0  0  0
    7.5330   20.9800   18.8840 C   0  0  0  0  0  0  0  0  0  0  0  0
    5.4500   19.8650   18.3820 C   0  0  0  0  0  0  0  0  0  0  0  0
    4.3880   19.0140   18.7520 C   0  0  0  0  0  0  0  0  0  0  0  0
    3.4190   18.6660   17.8390 C   0  0  0  0  0  0  0  0  0  0  0  0
    7.5400   21.5620   17.6030 C   0  0  0  0  0  0  0  0  0  0  0  0
    8.6850   22.4790   17.2440 C   0  0  0  0  0  0  0  0  0  0  0  0
    6.5000   21.3180   16.7080 C   0  0  0  0  0  0  0  0  0  0  0  0
    3.5370   19.2170   16.5190 C   0  0  0  0  0  0  0  0  0  0  0  0
    6.4500   21.9910   15.4120 C   0  0  0  0  0  0  0  0  0  0  0  0
    2.3440   17.7530   18.2490 C   0  0  0  0  0  0  0  0  0  0  0  0
    7.3100   21.7140   14.5270 O   0  0  0  0  0  0  0  0  0  0  0  0
    5.5560   22.8490   15.1950 O   0  5  0  0  0  0  0  0  0  0  0  0
    2.5660   16.9340   19.1840 O   0  5  0  0  0  0  0  0  0  0  0  0
    1.2160   17.7820   17.6900 O   0  0  0  0  0  0  0  0  0  0  0  0
    2.6080   18.8210   15.5340 N   0  0  0  0  0  0  0  0  0  0  0  0
    5.4620   20.4130   17.0790 C   0  0  0  0  0  0  0  0  0  0  0  0
    2.4430   19.2410   14.2270 C   0  0  0  0  0  0  0  0  0  0  0  0
    4.4970   20.0460   16.1790 N   0  0  0  0  0  0  0  0  0  0  0  0
    1.6190   18.6380   13.5700 O   0  0  0  0  0  0  0  0  0  0  0  0
    3.2170   20.3900   13.6120 C   0  0  0  0  0  0  0  0  0  0  0  0
    6.5030   19.7390   20.2430 H   0  0  0  0  0  0  0  0  0  0  0  0
    8.3270   21.1840   19.5560 H   0  0  0  0  0  0  0  0  0  0  0  0
    4.3490   18.6390   19.7400 H   0  0  0  0  0  0  0  0  0  0  0  0
    9.4580   22.4610   18.0110 H   0  0  0  0  0  0  0  0  0  0  0  0
    9.1480   22.1740   16.3060 H   0  0  0  0  0  0  0  0  0  0  0  0
    8.3180   23.4980   17.1410 H   0  0  0  0  0  0  0  0  0  0  0  0
    1.9200   18.1150   15.8500 H   0  0  0  0  0  0  0  0  0  0  0  0
    2.8580   20.6230   12.6200 H   0  0  0  0  0  0  0  0  0  0  0  0
    3.1290   21.2880   14.2080 H   0  0  0  0  0  0  0  0  0  0  0  0
    4.2690   20.1600   13.5280 H   0  0  0  0  0  0  0  0  0  0  0  0
  1  2  2  0  0  0  0
  1  3  1  0  0  0  0
  1 22  1  0  0  0  0
  2  6  1  0  0  0  0
  2 23  1  0  0  0  0
  3  4  1  0  0  0  0
  3 17  2  0  0  0  0
  4  5  2  0  0  0  0
  4 24  1  0  0  0  0
  5  9  1  0  0  0  0
  5 11  1  0  0  0  0
  6  7  1  0  0  0  0
  6  8  2  0  0  0  0
  7 25  1  0  0  0  0
  7 26  1  0  0  0  0
  7 27  1  0  0  0  0
  8 10  1  0  0  0  0
  8 17  1  0  0  0  0
  9 16  1  0  0  0  0
  9 19  2  0  0  0  0
 10 12  2  0  0  0  0
 10 13  1  0  0  0  0
 11 14  1  0  0  0  0
 11 15  2  0  0  0  0
 16 18  1  0  0  0  0
 16 28  1  0  0  0  0
 17 19  1  0  0  0  0
 18 20  2  0  0  0  0
 18 21  1  0  0  0  0
 21 29  1  0  0  0  0
 21 30  1  0  0  0  0
 21 31  1  0  0  0  0
M  CHG  1  13  -1
M  CHG  1  14  -1
M  END
> <rseq>
1

> <mseq>
73

> <S>
-5.030879

> <rmsd_refine>
1.09815

> <E_conf>
-261.8493

> <E_score1>
-8.358591

> <E_refine>
-26.83534

> <E_score2>
-5.030879

>  <$File>
outputs/pdb_4j58_cleaned.pdb_2024_06_17__22_47_40_V2_BS398_MIN1_/SDF/sdf_db.sdf

> <Rec_index>
1

>  <PLIF_raw>
[[12,12,12,2,2,2,2,2,2],[826,826,829,1651,1655,1659,1657,1653,1650],[54,54,54,112,112,112,112,112,112],[2,7,7,10,10,10,10,10,10],[4.5,5.436652417,2.027951061,0.5,0.5,0.5,0.5,0.5,0.5]]

> <FP:PLIF>
6 19 1 16 15

>  <PLIF_ligidx>
[12,12,[12,12],12,[2,2,2,2,2,2]]

$$$$
73
  MOE2022           3D

 37 39  0  0  1  0  0  0  0  0999 V2000
    8.3360   21.2460   18.3770 C   0  0  0  0  0  0  0  0  0  0  0  0
    7.8050   22.1110   17.4300 C   0  0  0  0  0  0  0  0  0  0  0  0
    7.6090   20.1300   18.7730 C   0  0  0  0  0  0  0  0  0  0  0  0
    6.3570   19.8730   18.2190 C   0  0  0  0  0  0  0  0  0  0  0  0
    6.5510   21.8470   16.8820 C   0  0  0  0  0  0  0  0  0  0  0  0
    6.0790   22.7520   15.9740 O   0  0  0  0  0  0  0  0  0  0  0  0
    5.8000   20.7140   17.2500 C   0  0  0  0  0  0  0  0  0  0  0  0
    4.3980   20.4430   16.6620 C   0  0  2  0  0  0  0  0  0  0  0  0
    3.8610   19.0690   16.8090 N   0  0  0  0  0  0  0  0  0  0  0  0
    4.3240   20.6920   15.2250 N   0  0  0  0  0  0  0  0  0  0  0  0
    3.0250   18.8200   15.6090 C   0  0  2  0  0  0  0  0  0  0  0  0
    3.6120   19.8410   14.6560 C   0  0  0  0  0  0  0  0  0  0  0  0
    3.3400   19.9300   13.1670 C   0  0  0  0  0  0  0  0  0  0  0  0
    1.5150   19.1390   15.7770 C   0  0  0  0  0  0  0  0  0  0  0  0
    3.1700   18.8320   18.0810 C   0  0  0  0  0  0  0  0  0  0  0  0
    3.2100   17.3720   15.1730 C   0  0  0  0  0  0  0  0  0  0  0  0
    2.7750   17.3970   18.3990 C   0  0  0  0  0  0  0  0  0  0  0  0
    3.4170   17.0570   14.0110 O   0  0  0  0  0  0  0  0  0  0  0  0
    2.4700   17.1010   19.5450 O   0  0  0  0  0  0  0  0  0  0  0  0
    3.1040   16.3440   16.0620 N   0  0  0  0  0  0  0  0  0  0  0  0
    2.7300   16.3790   17.4890 N   0  0  0  0  0  0  0  0  0  0  0  0
    9.2900   21.4360   18.7990 H   0  0  0  0  0  0  0  0  0  0  0  0
    8.3510   22.9670   17.1280 H   0  0  0  0  0  0  0  0  0  0  0  0
    8.0110   19.4710   19.4980 H   0  0  0  0  0  0  0  0  0  0  0  0
    5.8360   19.0170   18.5500 H   0  0  0  0  0  0  0  0  0  0  0  0
    5.2450   22.4230   15.5780 H   0  0  0  0  0  0  0  0  0  0  0  0
    3.7010   21.1260   17.1300 H   0  0  0  0  0  0  0  0  0  0  0  0
    2.2820   19.8680   12.9540 H   0  0  0  0  0  0  0  0  0  0  0  0
    3.6970   20.8620   12.7510 H   0  0  0  0  0  0  0  0  0  0  0  0
    3.8250   19.1360   12.6190 H   0  0  0  0  0  0  0  0  0  0  0  0
    1.0240   18.4550   16.4690 H   0  0  0  0  0  0  0  0  0  0  0  0
    1.3660   20.1600   16.1310 H   0  0  0  0  0  0  0  0  0  0  0  0
    1.0000   19.0400   14.8210 H   0  0  0  0  0  0  0  0  0  0  0  0
    3.8020   19.1780   18.8840 H   0  0  0  0  0  0  0  0  0  0  0  0
    2.3000   19.4690   18.1520 H   0  0  0  0  0  0  0  0  0  0  0  0
    3.2110   15.3770   15.7110 H   0  0  0  0  0  0  0  0  0  0  0  0
    2.4360   15.4430   17.8230 H   0  0  0  0  0  0  0  0  0  0  0  0
  1  2  1  0  0  0  0
  1  3  2  0  0  0  0
  1 22  1  0  0  0  0
  2  5  2  0  0  0  0
  2 23  1  0  0  0  0
  3  4  1  0  0  0  0
  3 24  1  0  0  0  0
  4  7  2  0  0  0  0
  4 25  1  0  0  0  0
  5  6  1  0  0  0  0
  5  7  1  0  0  0  0
  6 26  1  0  0  0  0
  7  8  1  0  0  0  0
  8  9  1  0  0  0  0
  8 10  1  0  0  0  0
  8 27  1  0  0  0  0
  9 11  1  0  0  0  0
  9 15  1  0  0  0  0
 10 12  2  0  0  0  0
 11 12  1  0  0  0  0
 11 14  1  0  0  0  0
 11 16  1  0  0  0  0
 12 13  1  0  0  0  0
 13 28  1  0  0  0  0
 13 29  1  0  0  0  0
 13 30  1  0  0  0  0
 14 31  1  0  0  0  0
 14 32  1  0  0  0  0
 14 33  1  0  0  0  0
 15 17  1  0  0  0  0
 15 34  1  0  0  0  0
 15 35  1  0  0  0  0
 16 18  2  0  0  0  0
 16 20  1  0  0  0  0
 17 19  2  0  0  0  0
 17 21  1  0  0  0  0
 20 21  1  0  0  0  0
 20 36  1  0  0  0  0
 21 37  1  0  0  0  0
M  END
> <rseq>
1

> <mseq>
74

> <S>
-5.076179

> <rmsd_refine>
0.7682129

> <E_conf>
97.63993

> <E_score1>
-7.833336

> <E_refine>
-26.8339

> <E_score2>
-5.076179

>  <$File>
outputs/pdb_4j58_cleaned.pdb_2024_06_17__22_47_40_V2_BS398_MIN1_/SDF/sdf_db.sdf

> <Rec_index>
1

>  <PLIF_raw>
[21,1071,71,3,3.4]

> <FP:PLIF>
7 14

>  <PLIF_ligidx>
[21,21]

$$$$
74
  MOE2022           3D

 32 34  0  0  0  0  0  0  0  0999 V2000
    7.7230   21.0220   18.7810 C   0  0  0  0  0  0  0  0  0  0  0  0
    6.6800   20.1250   18.5850 C   0  0  0  0  0  0  0  0  0  0  0  0
    5.6100   20.4450   17.7380 C   0  0  0  0  0  0  0  0  0  0  0  0
    4.5490   19.4760   17.4760 C   0  0  0  0  0  0  0  0  0  0  0  0
    4.1110   19.2440   16.1830 C   0  0  0  0  0  0  0  0  0  0  0  0
    3.9700   18.7380   18.5280 C   0  0  0  0  0  0  0  0  0  0  0  0
    2.9910   17.7770   18.3060 C   0  0  0  0  0  0  0  0  0  0  0  0
    3.1480   18.2550   15.9060 C   0  0  0  0  0  0  0  0  0  0  0  0
    5.5990   21.7030   17.1200 C   0  0  0  0  0  0  0  0  0  0  0  0
    2.5910   17.5020   16.9640 C   0  0  0  0  0  0  0  0  0  0  0  0
    2.4230   17.0620   19.4510 C   0  0  0  0  0  0  0  0  0  0  0  0
    7.7070   22.2580   18.1430 C   0  0  0  0  0  0  0  0  0  0  0  0
    6.6410   22.6010   17.3200 C   0  0  0  0  0  0  0  0  0  0  0  0
    2.7120   17.9390   14.5790 C   0  0  0  0  0  0  0  0  0  0  0  0
    1.7110   16.5030   16.6640 N   0  0  0  0  0  0  0  0  0  0  0  0
    1.1860   16.8280   19.5220 O   0  0  0  0  0  0  0  0  0  0  0  0
    3.1890   16.7190   20.3930 O   0  5  0  0  0  0  0  0  0  0  0  0
    1.3980   16.2830   15.4070 C   0  0  0  0  0  0  0  0  0  0  0  0
    3.1740   18.6420   13.4970 N   0  0  0  0  0  0  0  0  0  0  0  0
    0.5210   15.2730   15.1390 N   0  0  0  0  0  0  0  0  0  0  0  0
    1.8690   16.9760   14.3360 N   0  0  0  0  0  0  0  0  0  0  0  0
    8.5340   20.7640   19.4100 H   0  0  0  0  0  0  0  0  0  0  0  0
    6.7050   19.1850   19.0720 H   0  0  0  0  0  0  0  0  0  0  0  0
    4.5250   19.8070   15.3890 H   0  0  0  0  0  0  0  0  0  0  0  0
    4.2990   18.9250   19.5170 H   0  0  0  0  0  0  0  0  0  0  0  0
    4.7900   21.9750   16.4920 H   0  0  0  0  0  0  0  0  0  0  0  0
    8.5070   22.9350   18.2830 H   0  0  0  0  0  0  0  0  0  0  0  0
    6.6250   23.5470   16.8430 H   0  0  0  0  0  0  0  0  0  0  0  0
    2.6950   18.5030   12.5940 H   0  0  0  0  0  0  0  0  0  0  0  0
    3.6520   19.5400   13.6560 H   0  0  0  0  0  0  0  0  0  0  0  0
    0.4770   14.9370   14.1680 H   0  0  0  0  0  0  0  0  0  0  0  0
    0.3800   14.5850   15.8940 H   0  0  0  0  0  0  0  0  0  0  0  0
  1  2  1  0  0  0  0
  1 12  2  0  0  0  0
  1 22  1  0  0  0  0
  2  3  2  0  0  0  0
  2 23  1  0  0  0  0
  3  4  1  0  0  0  0
  3  9  1  0  0  0  0
  4  5  1  0  0  0  0
  4  6  2  0  0  0  0
  5  8  2  0  0  0  0
  5 24  1  0  0  0  0
  6  7  1  0  0  0  0
  6 25  1  0  0  0  0
  7 10  2  0  0  0  0
  7 11  1  0  0  0  0
  8 10  1  0  0  0  0
  8 14  1  0  0  0  0
  9 13  2  0  0  0  0
  9 26  1  0  0  0  0
 10 15  1  0  0  0  0
 11 16  2  0  0  0  0
 11 17  1  0  0  0  0
 12 13  1  0  0  0  0
 12 27  1  0  0  0  0
 13 28  1  0  0  0  0
 14 19  1  0  0  0  0
 14 21  2  0  0  0  0
 15 18  2  0  0  0  0
 18 20  1  0  0  0  0
 18 21  1  0  0  0  0
 19 29  1  0  0  0  0
 19 30  1  0  0  0  0
 20 31  1  0  0  0  0
 20 32  1  0  0  0  0
M  CHG  1  17  -1
M  END
> <rseq>
1

> <mseq>
75

> <S>
-5.202034

> <rmsd_refine>
0.7657548

> <E_conf>
-259.107

> <E_score1>
-8.484668

> <E_refine>
-23.66272

> <E_score2>
-5.202034

>  <$File>
outputs/pdb_4j58_cleaned.pdb_2024_06_17__22_47_40_V2_BS398_MIN1_/SDF/sdf_db.sdf

> <Rec_index>
1

>  <PLIF_raw>
[[20,1,1,1,1,1,1],[1071,1650,1653,1657,1659,1655,1651],[71,112,112,112,112,112,112],[3,10,10,10,10,10,10],[0.5,0.5,0.5,0.5,0.5,0.5,0.5]]

> <FP:PLIF>
7 15

>  <PLIF_ligidx>
[20,[1,1,1,1,1,1]]

$$$$
75
  MOE2022           3D

 31 32  0  0  1  0  0  0  0  0999 V2000
    1.6000   15.1390   21.5670 O   0  0  0  0  0  0  0  0  0  0  0  0
    1.0930   15.9570   20.7670 C   0  0  0  0  0  0  0  0  0  0  0  0
    0.2050   16.7720   21.0880 O   0  5  0  0  0  0  0  0  0  0  0  0
    1.5520   15.8820   19.3200 C   0  0  1  0  0  0  0  0  0  0  0  0
    0.4870   15.9920   18.2400 C   0  0  0  0  0  0  0  0  0  0  0  0
    2.5580   16.8170   18.8480 N   0  0  0  0  0  0  0  0  0  0  0  0
    1.2400   16.4160   17.0560 N   0  0  0  0  0  0  0  0  0  0  0  0
    2.4570   16.9540   17.4880 C   0  0  0  0  0  0  0  0  0  0  0  0
    3.3340   17.4410   16.7780 O   0  0  0  0  0  0  0  0  0  0  0  0
    0.8440   16.0740   15.7540 C   0  0  0  0  0  0  0  0  0  0  0  0
    1.7030   16.2530   14.5820 C   0  0  0  0  0  0  0  0  0  0  0  0
   -0.2650   15.5620   15.6380 O   0  0  0  0  0  0  0  0  0  0  0  0
    2.0530   17.5220   14.1060 C   0  0  0  0  0  0  0  0  0  0  0  0
    2.7460   17.6600   12.9070 C   0  0  0  0  0  0  0  0  0  0  0  0
    3.1090   16.5400   12.1550 C   0  0  0  0  0  0  0  0  0  0  0  0
    2.8000   15.2720   12.6520 C   0  0  0  0  0  0  0  0  0  0  0  0
    3.7540   16.7380   10.7840 C   0  0  0  0  0  0  0  0  0  0  0  0
    2.1100   15.1300   13.8510 C   0  0  0  0  0  0  0  0  0  0  0  0
    4.7070   15.6700   10.2730 C   0  0  0  0  0  0  0  0  0  0  0  0
    4.2230   14.5910    9.8680 O   0  5  0  0  0  0  0  0  0  0  0  0
    5.9260   15.9500   10.2310 O   0  0  0  0  0  0  0  0  0  0  0  0
    2.0020   14.9120   19.2040 H   0  0  0  0  0  0  0  0  0  0  0  0
   -0.0300   15.0510   18.1050 H   0  0  0  0  0  0  0  0  0  0  0  0
   -0.2490   16.7420   18.4960 H   0  0  0  0  0  0  0  0  0  0  0  0
    3.4680   16.9120   19.3210 H   0  0  0  0  0  0  0  0  0  0  0  0
    1.7670   18.3850   14.6510 H   0  0  0  0  0  0  0  0  0  0  0  0
    2.9800   18.6310   12.5510 H   0  0  0  0  0  0  0  0  0  0  0  0
    3.0710   14.4030   12.1080 H   0  0  0  0  0  0  0  0  0  0  0  0
    2.9630   16.8510   10.0560 H   0  0  0  0  0  0  0  0  0  0  0  0
    4.2660   17.6900   10.7650 H   0  0  0  0  0  0  0  0  0  0  0  0
    1.8650   14.1600   14.1970 H   0  0  0  0  0  0  0  0  0  0  0  0
  1  2  2  0  0  0  0
  2  3  1  0  0  0  0
  2  4  1  0  0  0  0
  4  5  1  0  0  0  0
  4  6  1  0  0  0  0
  4 22  1  0  0  0  0
  5  7  1  0  0  0  0
  5 23  1  0  0  0  0
  5 24  1  0  0  0  0
  6  8  1  0  0  0  0
  6 25  1  0  0  0  0
  7  8  1  0  0  0  0
  7 10  1  0  0  0  0
  8  9  2  0  0  0  0
 10 11  1  0  0  0  0
 10 12  2  0  0  0  0
 11 13  1  0  0  0  0
 11 18  2  0  0  0  0
 13 14  2  0  0  0  0
 13 26  1  0  0  0  0
 14 15  1  0  0  0  0
 14 27  1  0  0  0  0
 15 16  2  0  0  0  0
 15 17  1  0  0  0  0
 16 18  1  0  0  0  0
 16 28  1  0  0  0  0
 17 19  1  0  0  0  0
 17 29  1  0  0  0  0
 17 30  1  0  0  0  0
 18 31  1  0  0  0  0
 19 20  1  0  0  0  0
 19 21  2  0  0  0  0
M  CHG  1   3  -1
M  CHG  1  20  -1
M  END
> <rseq>
1

> <mseq>
76

> <S>
-5.095813

> <rmsd_refine>
2.24465

> <E_conf>
-172.5434

> <E_score1>
-8.595345

> <E_refine>
-30.17647

> <E_score2>
-5.095813

>  <$File>
outputs/pdb_4j58_cleaned.pdb_2024_06_17__22_47_40_V2_BS398_MIN1_/SDF/sdf_db.sdf

> <Rec_index>
1

>  <PLIF_raw>
[[1,1,9,21,1,1,3,21,21],[1206,1212,954,823,1206,1212,1206,823,829],[81,81,62,54,81,81,81,54,54],[2,2,2,2,7,7,7,7,7],[1.3,0.7,2.6,6.5,3.795326413,4.221643319,1.043278072,5.55134122,0.618230819]]

> <FP:PLIF>
6 19 1 16 20 23 17 24 25

>  <PLIF_ligidx>
[21,21,[21,21],21,9,9,[1,1],[1,1,3],[1,1]]

$$$$
76
  MOE2022           3D

 46 47  0  0  1  0  0  0  0  0999 V2000
    1.9250   14.9570   21.9070 O   0  0  0  0  0  0  0  0  0  0  0  0
    1.2420   15.7680   21.2450 C   0  0  0  0  0  0  0  0  0  0  0  0
    0.2770   16.4100   21.7150 O   0  5  0  0  0  0  0  0  0  0  0  0
    1.5860   15.9280   19.7750 C   0  0  1  0  0  0  0  0  0  0  0  0
    0.3920   16.0280   18.8290 C   0  0  0  0  0  0  0  0  0  0  0  0
    2.3910   17.0880   19.4270 N   0  0  0  0  0  0  0  0  0  0  0  0
    0.7880   17.0320   17.8560 N   0  0  0  0  0  0  0  0  0  0  0  0
    1.8870   17.7150   18.3250 C   0  0  0  0  0  0  0  0  0  0  0  0
   -0.1890   17.6230   16.9460 C   0  0  0  0  0  0  0  0  0  0  0  0
    2.3600   18.7390   17.8310 O   0  0  0  0  0  0  0  0  0  0  0  0
    0.3480   17.9150   15.5330 C   0  0  0  0  0  0  0  0  0  0  0  0
    1.1710   16.7780   14.8950 C   0  0  1  0  0  0  0  0  0  0  0  0
    0.4410   15.5010   14.9950 N   0  3  0  0  0  0  0  0  0  0  0  0
    1.4800   17.1640   13.4320 C   0  0  0  0  0  0  0  0  0  0  0  0
    2.5820   16.3660   12.6870 C   0  0  2  0  0  0  0  0  0  0  0  0
    2.8740   17.0660   11.3320 C   0  0  1  0  0  0  0  0  0  0  0  0
    3.4950   18.3190   11.5440 O   0  0  0  0  0  0  0  0  0  0  0  0
    2.1920   14.8860   12.4710 C   0  0  0  0  0  0  0  0  0  0  0  0
    3.1500   14.1390   11.5340 C   0  0  0  0  0  0  0  0  0  0  0  0
    3.2730   14.8440   10.1830 C   0  0  0  0  0  0  0  0  0  0  0  0
    3.7960   16.2650   10.4000 C   0  0  0  0  0  0  0  0  0  0  0  0
    2.1570   15.0690   19.4720 H   0  0  0  0  0  0  0  0  0  0  0  0
    0.1710   15.0770   18.3660 H   0  0  0  0  0  0  0  0  0  0  0  0
   -0.4970   16.3520   19.3520 H   0  0  0  0  0  0  0  0  0  0  0  0
    2.9260   17.6210   20.1280 H   0  0  0  0  0  0  0  0  0  0  0  0
   -1.0400   16.9600   16.8680 H   0  0  0  0  0  0  0  0  0  0  0  0
   -0.5810   18.5340   17.3800 H   0  0  0  0  0  0  0  0  0  0  0  0
   -0.5060   18.1480   14.8960 H   0  0  0  0  0  0  0  0  0  0  0  0
    0.9740   18.8060   15.5840 H   0  0  0  0  0  0  0  0  0  0  0  0
    2.1120   16.6900   15.4400 H   0  0  0  0  0  0  0  0  0  0  0  0
   -0.4440   15.5760   14.5160 H   0  0  0  0  0  0  0  0  0  0  0  0
    0.9920   14.7650   14.5810 H   0  0  0  0  0  0  0  0  0  0  0  0
    0.2890   15.2920   15.9730 H   0  0  0  0  0  0  0  0  0  0  0  0
    0.5560   17.1180   12.8520 H   0  0  0  0  0  0  0  0  0  0  0  0
    1.7910   18.2090   13.4470 H   0  0  0  0  0  0  0  0  0  0  0  0
    3.4940   16.3910   13.2850 H   0  0  0  0  0  0  0  0  0  0  0  0
    1.9290   17.2240   10.8090 H   0  0  0  0  0  0  0  0  0  0  0  0
    2.8500   18.9240   11.9190 H   0  0  0  0  0  0  0  0  0  0  0  0
    2.2050   14.3600   13.4250 H   0  0  0  0  0  0  0  0  0  0  0  0
    1.1870   14.8330   12.0500 H   0  0  0  0  0  0  0  0  0  0  0  0
    4.1380   14.0900   11.9940 H   0  0  0  0  0  0  0  0  0  0  0  0
    2.7870   13.1220   11.3810 H   0  0  0  0  0  0  0  0  0  0  0  0
    3.9680   14.2940    9.5480 H   0  0  0  0  0  0  0  0  0  0  0  0
    2.2980   14.8780    9.6930 H   0  0  0  0  0  0  0  0  0  0  0  0
    3.8590   16.7710    9.4350 H   0  0  0  0  0  0  0  0  0  0  0  0
    4.7960   16.2100   10.8260 H   0  0  0  0  0  0  0  0  0  0  0  0
  1  2  2  0  0  0  0
  2  3  1  0  0  0  0
  2  4  1  0  0  0  0
  4  5  1  0  0  0  0
  4  6  1  0  0  0  0
  4 22  1  0  0  0  0
  5  7  1  0  0  0  0
  5 23  1  0  0  0  0
  5 24  1  0  0  0  0
  6  8  1  0  0  0  0
  6 25  1  0  0  0  0
  7  8  1  0  0  0  0
  7  9  1  0  0  0  0
  8 10  2  0  0  0  0
  9 11  1  0  0  0  0
  9 26  1  0  0  0  0
  9 27  1  0  0  0  0
 11 12  1  0  0  0  0
 11 28  1  0  0  0  0
 11 29  1  0  0  0  0
 12 13  1  0  0  0  0
 12 14  1  0  0  0  0
 12 30  1  0  0  0  0
 13 31  1  0  0  0  0
 13 32  1  0  0  0  0
 13 33  1  0  0  0  0
 14 15  1  0  0  0  0
 14 34  1  0  0  0  0
 14 35  1  0  0  0  0
 15 16  1  0  0  0  0
 15 18  1  0  0  0  0
 15 36  1  0  0  0  0
 16 17  1  0  0  0  0
 16 21  1  0  0  0  0
 16 37  1  0  0  0  0
 17 38  1  0  0  0  0
 18 19  1  0  0  0  0
 18 39  1  0  0  0  0
 18 40  1  0  0  0  0
 19 20  1  0  0  0  0
 19 41  1  0  0  0  0
 19 42  1  0  0  0  0
 20 21  1  0  0  0  0
 20 43  1  0  0  0  0
 20 44  1  0  0  0  0
 21 45  1  0  0  0  0
 21 46  1  0  0  0  0
M  CHG  1   3  -1
M  CHG  1  13   1
M  END
> <rseq>
1

> <mseq>
77

> <S>
-5.288284

> <rmsd_refine>
2.350533

> <E_conf>
-164.4008

> <E_score1>
-8.004259

> <E_refine>
-26.96657

> <E_score2>
-5.288284

>  <$File>
outputs/pdb_4j58_cleaned.pdb_2024_06_17__22_47_40_V2_BS398_MIN1_/SDF/sdf_db.sdf

> <Rec_index>
1

>  <PLIF_raw>
[[3,1,1,3,3],[1206,1206,1212,1206,1212],[81,81,81,81,81],[2,7,7,7,7],[4.4,3.928269674,4.032284673,3.752346225,0.8408786452]]

> <FP:PLIF>
17 18 24 25

>  <PLIF_ligidx>
[3,3,[1,1,3,3],[1,1,3]]

$$$$
77
  MOE2022           3D

 40 42  0  0  1  0  0  0  0  0999 V2000
    7.4290   21.5140   17.2920 C   0  0  0  0  0  0  0  0  0  0  0  0
    6.8820   22.1930   16.2110 C   0  0  0  0  0  0  0  0  0  0  0  0
    6.7600   20.4200   17.8320 C   0  0  0  0  0  0  0  0  0  0  0  0
    5.5450   20.0020   17.2920 C   0  0  0  0  0  0  0  0  0  0  0  0
    5.6680   21.7660   15.6760 C   0  0  0  0  0  0  0  0  0  0  0  0
    5.1730   22.4550   14.6040 O   0  0  0  0  0  0  0  0  0  0  0  0
    4.9750   20.6650   16.2010 C   0  0  0  0  0  0  0  0  0  0  0  0
    3.6450   20.2160   15.5830 C   0  0  2  0  0  0  0  0  0  0  0  0
    3.0390   19.0250   16.1920 N   0  0  0  0  0  0  0  0  0  0  0  0
    3.8060   19.8600   14.1780 N   0  0  0  0  0  0  0  0  0  0  0  0
    2.4480   18.2220   15.0940 C   0  0  2  0  0  0  0  0  0  0  0  0
    3.2020   18.8010   13.9130 C   0  0  0  0  0  0  0  0  0  0  0  0
    3.1670   18.2600   12.4950 C   0  0  0  0  0  0  0  0  0  0  0  0
    0.9420   18.4940   14.8340 C   0  0  0  0  0  0  0  0  0  0  0  0
    2.2090   19.2600   17.3860 C   0  0  0  0  0  0  0  0  0  0  0  0
    2.7450   16.7410   15.3730 C   0  0  0  0  0  0  0  0  0  0  0  0
    2.0520   18.0150   18.2910 C   0  0  2  0  0  0  0  0  0  0  0  0
    3.2780   16.0110   14.5420 O   0  0  0  0  0  0  0  0  0  0  0  0
    2.4690   16.2160   16.5770 N   0  0  0  0  0  0  0  0  0  0  0  0
    3.2400   17.7560   19.0110 O   0  0  0  0  0  0  0  0  0  0  0  0
    1.5620   16.7310   17.6020 C   0  0  0  0  0  0  0  0  0  0  0  0
    8.3550   21.8260   17.7040 H   0  0  0  0  0  0  0  0  0  0  0  0
    7.3850   23.0280   15.7950 H   0  0  0  0  0  0  0  0  0  0  0  0
    7.1800   19.8990   18.6540 H   0  0  0  0  0  0  0  0  0  0  0  0
    5.0670   19.1610   17.7200 H   0  0  0  0  0  0  0  0  0  0  0  0
    4.3710   22.0130   14.2590 H   0  0  0  0  0  0  0  0  0  0  0  0
    2.9330   21.0300   15.6360 H   0  0  0  0  0  0  0  0  0  0  0  0
    2.1520   18.1520   12.1400 H   0  0  0  0  0  0  0  0  0  0  0  0
    3.6770   18.9170   11.8050 H   0  0  0  0  0  0  0  0  0  0  0  0
    3.6370   17.2920   12.4150 H   0  0  0  0  0  0  0  0  0  0  0  0
    0.2990   18.2350   15.6690 H   0  0  0  0  0  0  0  0  0  0  0  0
    0.7760   19.5480   14.6100 H   0  0  0  0  0  0  0  0  0  0  0  0
    0.5990   17.9120   13.9790 H   0  0  0  0  0  0  0  0  0  0  0  0
    2.6640   20.0490   17.9690 H   0  0  0  0  0  0  0  0  0  0  0  0
    1.2420   19.6490   17.1050 H   0  0  0  0  0  0  0  0  0  0  0  0
    1.2920   18.2760   19.0270 H   0  0  0  0  0  0  0  0  0  0  0  0
    2.7680   15.2620   16.7220 H   0  0  0  0  0  0  0  0  0  0  0  0
    3.4930   18.5630   19.4660 H   0  0  0  0  0  0  0  0  0  0  0  0
    1.4660   15.9620   18.3700 H   0  0  0  0  0  0  0  0  0  0  0  0
    0.5680   16.8790   17.1890 H   0  0  0  0  0  0  0  0  0  0  0  0
  1  2  1  0  0  0  0
  1  3  2  0  0  0  0
  1 22  1  0  0  0  0
  2  5  2  0  0  0  0
  2 23  1  0  0  0  0
  3  4  1  0  0  0  0
  3 24  1  0  0  0  0
  4  7  2  0  0  0  0
  4 25  1  0  0  0  0
  5  6  1  0  0  0  0
  5  7  1  0  0  0  0
  6 26  1  0  0  0  0
  7  8  1  0  0  0  0
  8  9  1  0  0  0  0
  8 10  1  0  0  0  0
  8 27  1  0  0  0  0
  9 11  1  0  0  0  0
  9 15  1  0  0  0  0
 10 12  2  0  0  0  0
 11 12  1  0  0  0  0
 11 14  1  0  0  0  0
 11 16  1  0  0  0  0
 12 13  1  0  0  0  0
 13 28  1  0  0  0  0
 13 29  1  0  0  0  0
 13 30  1  0  0  0  0
 14 31  1  0  0  0  0
 14 32  1  0  0  0  0
 14 33  1  0  0  0  0
 15 17  1  0  0  0  0
 15 34  1  0  0  0  0
 15 35  1  0  0  0  0
 16 18  2  0  0  0  0
 16 19  1  0  0  0  0
 17 20  1  0  0  0  0
 17 21  1  0  0  0  0
 17 36  1  0  0  0  0
 19 21  1  0  0  0  0
 19 37  1  0  0  0  0
 20 38  1  0  0  0  0
 21 39  1  0  0  0  0
 21 40  1  0  0  0  0
M  END
> <rseq>
1

> <mseq>
78

> <S>
-4.672402

> <rmsd_refine>
1.669622

> <E_conf>
60.27489

> <E_score1>
-7.852412

> <E_refine>
-23.48463

> <E_score2>
-4.672402

>  <$File>
outputs/pdb_4j58_cleaned.pdb_2024_06_17__22_47_40_V2_BS398_MIN1_/SDF/sdf_db.sdf

> <Rec_index>
1

>  <PLIF_raw>
[19,1071,71,3,1.6]

> <FP:PLIF>
7 14

>  <PLIF_ligidx>
[19,19]

$$$$
78
  MOE2022           3D

 38 40  0  0  1  0  0  0  0  0999 V2000
    7.3220   21.4830   19.1890 C   0  0  0  0  0  0  0  0  0  0  0  0
    6.6120   22.5320   18.6200 C   0  0  0  0  0  0  0  0  0  0  0  0
    6.9020   20.1730   18.9830 C   0  0  0  0  0  0  0  0  0  0  0  0
    5.7800   19.9120   18.2000 C   0  0  0  0  0  0  0  0  0  0  0  0
    5.4860   22.2590   17.8450 C   0  0  0  0  0  0  0  0  0  0  0  0
    4.7990   23.3170   17.3170 O   0  0  0  0  0  0  0  0  0  0  0  0
    5.0560   20.9480   17.6090 C   0  0  0  0  0  0  0  0  0  0  0  0
    3.8290   20.6830   16.7330 C   0  0  2  0  0  0  0  0  0  0  0  0
    3.3600   19.2880   16.6600 N   0  0  0  0  0  0  0  0  0  0  0  0
    4.0480   21.0410   15.3350 N   0  0  0  0  0  0  0  0  0  0  0  0
    2.7050   19.1610   15.3430 C   0  0  2  0  0  0  0  0  0  0  0  0
    3.4520   20.2390   14.5870 C   0  0  0  0  0  0  0  0  0  0  0  0
    3.4630   20.3990   13.0820 C   0  0  0  0  0  0  0  0  0  0  0  0
    1.1960   19.5040   15.3770 C   0  0  0  0  0  0  0  0  0  0  0  0
    2.5990   18.8200   17.8490 C   0  0  0  0  0  0  0  0  0  0  0  0
    2.9330   17.7550   14.8050 C   0  0  0  0  0  0  0  0  0  0  0  0
    2.0830   17.3630   17.8310 C   0  0  0  0  0  0  0  0  0  0  0  0
    2.7140   17.4770   13.6580 O   0  0  0  0  0  0  0  0  0  0  0  0
    1.3030   17.0230   18.7160 O   0  0  0  0  0  0  0  0  0  0  0  0
    2.4530   16.4640   16.9020 N   0  0  0  0  0  0  0  0  0  0  0  0
    3.3580   16.6680   15.7700 C   0  0  0  0  0  0  0  0  0  0  0  0
    8.1810   21.6790   19.7760 H   0  0  0  0  0  0  0  0  0  0  0  0
    6.9280   23.5300   18.7720 H   0  0  0  0  0  0  0  0  0  0  0  0
    7.4410   19.3720   19.4200 H   0  0  0  0  0  0  0  0  0  0  0  0
    5.4770   18.9130   18.0590 H   0  0  0  0  0  0  0  0  0  0  0  0
    5.2530   24.1600   17.5120 H   0  0  0  0  0  0  0  0  0  0  0  0
    3.0120   21.2940   17.0950 H   0  0  0  0  0  0  0  0  0  0  0  0
    3.9210   19.5510   12.5940 H   0  0  0  0  0  0  0  0  0  0  0  0
    2.4590   20.4890   12.6920 H   0  0  0  0  0  0  0  0  0  0  0  0
    4.0090   21.2810   12.7760 H   0  0  0  0  0  0  0  0  0  0  0  0
    0.6240   18.7560   15.9260 H   0  0  0  0  0  0  0  0  0  0  0  0
    1.0230   20.4780   15.8370 H   0  0  0  0  0  0  0  0  0  0  0  0
    0.7940   19.5370   14.3640 H   0  0  0  0  0  0  0  0  0  0  0  0
    3.2640   18.9000   18.7060 H   0  0  0  0  0  0  0  0  0  0  0  0
    1.7510   19.4850   18.0170 H   0  0  0  0  0  0  0  0  0  0  0  0
    2.0600   15.5370   16.9970 H   0  0  0  0  0  0  0  0  0  0  0  0
    3.4740   15.7340   15.2370 H   0  0  0  0  0  0  0  0  0  0  0  0
    4.3410   16.9080   16.1420 H   0  0  0  0  0  0  0  0  0  0  0  0
  1  2  1  0  0  0  0
  1  3  2  0  0  0  0
  1 22  1  0  0  0  0
  2  5  2  0  0  0  0
  2 23  1  0  0  0  0
  3  4  1  0  0  0  0
  3 24  1  0  0  0  0
  4  7  2  0  0  0  0
  4 25  1  0  0  0  0
  5  6  1  0  0  0  0
  5  7  1  0  0  0  0
  6 26  1  0  0  0  0
  7  8  1  0  0  0  0
  8  9  1  0  0  0  0
  8 10  1  0  0  0  0
  8 27  1  0  0  0  0
  9 11  1  0  0  0  0
  9 15  1  0  0  0  0
 10 12  2  0  0  0  0
 11 12  1  0  0  0  0
 11 14  1  0  0  0  0
 11 16  1  0  0  0  0
 12 13  1  0  0  0  0
 13 28  1  0  0  0  0
 13 29  1  0  0  0  0
 13 30  1  0  0  0  0
 14 31  1  0  0  0  0
 14 32  1  0  0  0  0
 14 33  1  0  0  0  0
 15 17  1  0  0  0  0
 15 34  1  0  0  0  0
 15 35  1  0  0  0  0
 16 18  2  0  0  0  0
 16 21  1  0  0  0  0
 17 19  2  0  0  0  0
 17 20  1  0  0  0  0
 20 21  1  0  0  0  0
 20 36  1  0  0  0  0
 21 37  1  0  0  0  0
 21 38  1  0  0  0  0
M  END
> <rseq>
1

> <mseq>
79

> <S>
-4.725069

> <rmsd_refine>
0.9378172

> <E_conf>
47.18068

> <E_score1>
-7.736043

> <E_refine>
-22.00444

> <E_score2>
-4.725069

>  <$File>
outputs/pdb_4j58_cleaned.pdb_2024_06_17__22_47_40_V2_BS398_MIN1_/SDF/sdf_db.sdf

> <Rec_index>
1

>  <PLIF_raw>
[20,1071,71,3,2.2]

> <FP:PLIF>
7 14

>  <PLIF_ligidx>
[20,20]

$$$$
79
  MOE2022           3D

 37 39  0  0  0  0  0  0  0  0999 V2000
    7.0470   21.2670   19.4230 C   0  0  0  0  0  0  0  0  0  0  0  0
    6.2520   20.1780   19.0940 C   0  0  0  0  0  0  0  0  0  0  0  0
    5.1370   20.3310   18.2600 C   0  0  0  0  0  0  0  0  0  0  0  0
    4.3370   19.1620   17.9310 C   0  0  0  0  0  0  0  0  0  0  0  0
    3.7390   18.8770   16.7340 C   0  0  0  0  0  0  0  0  0  0  0  0
    3.7840   19.7200   15.5390 C   0  0  0  0  0  0  0  0  0  0  0  0
    3.0000   17.5610   16.5130 C   0  0  0  0  0  0  0  0  0  0  0  0
    6.7330   22.5290   18.9330 C   0  0  0  0  0  0  0  0  0  0  0  0
    4.8220   21.6090   17.7820 C   0  0  0  0  0  0  0  0  0  0  0  0
    3.7630   19.2190   14.4130 O   0  0  0  0  0  0  0  0  0  0  0  0
    3.8190   21.1030   15.6190 N   0  0  0  0  0  0  0  0  0  0  0  0
    2.6600   16.8230   17.7270 N   0  0  0  0  0  0  0  0  0  0  0  0
    5.6200   22.6990   18.1170 C   0  0  0  0  0  0  0  0  0  0  0  0
    3.8530   21.9470   14.4180 C   0  0  0  0  0  0  0  0  0  0  0  0
    3.6230   21.7840   16.8900 C   0  0  0  0  0  0  0  0  0  0  0  0
    1.5820   17.1410   18.5110 C   0  0  0  0  0  0  0  0  0  0  0  0
    0.7040   17.8690   18.0590 O   0  0  0  0  0  0  0  0  0  0  0  0
    1.5440   16.5980   19.8500 C   0  0  0  0  0  0  0  0  0  0  0  0
    0.5290   16.3920   20.7170 C   0  0  0  0  0  0  0  0  0  0  0  0
    2.6240   16.1880   20.5240 N   0  0  0  0  0  0  0  0  0  0  0  0
    2.2960   15.7440   21.7370 N   0  0  0  0  0  0  0  0  0  0  0  0
    0.9960   15.8780   21.8610 N   0  0  0  0  0  0  0  0  0  0  0  0
    7.8970   21.1370   20.0400 H   0  0  0  0  0  0  0  0  0  0  0  0
    6.5040   19.2200   19.4660 H   0  0  0  0  0  0  0  0  0  0  0  0
    4.2680   18.4660   18.7240 H   0  0  0  0  0  0  0  0  0  0  0  0
    2.0980   17.7490   15.9450 H   0  0  0  0  0  0  0  0  0  0  0  0
    3.5990   16.9240   15.8760 H   0  0  0  0  0  0  0  0  0  0  0  0
    7.3440   23.3560   19.1780 H   0  0  0  0  0  0  0  0  0  0  0  0
    3.3690   16.1820   18.1100 H   0  0  0  0  0  0  0  0  0  0  0  0
    5.3860   23.6640   17.7470 H   0  0  0  0  0  0  0  0  0  0  0  0
    4.3340   22.8960   14.6140 H   0  0  0  0  0  0  0  0  0  0  0  0
    4.3990   21.4820   13.6090 H   0  0  0  0  0  0  0  0  0  0  0  0
    2.8530   22.1550   14.0610 H   0  0  0  0  0  0  0  0  0  0  0  0
    2.7360   21.4050   17.3820 H   0  0  0  0  0  0  0  0  0  0  0  0
    3.4250   22.8360   16.7310 H   0  0  0  0  0  0  0  0  0  0  0  0
   -0.4940   16.5920   20.5360 H   0  0  0  0  0  0  0  0  0  0  0  0
    3.5970   16.1920   20.1710 H   0  0  0  0  0  0  0  0  0  0  0  0
  1  2  2  0  0  0  0
  1  8  1  0  0  0  0
  1 23  1  0  0  0  0
  2  3  1  0  0  0  0
  2 24  1  0  0  0  0
  3  4  1  0  0  0  0
  3  9  2  0  0  0  0
  4  5  2  0  0  0  0
  4 25  1  0  0  0  0
  5  6  1  0  0  0  0
  5  7  1  0  0  0  0
  6 10  2  0  0  0  0
  6 11  1  0  0  0  0
  7 12  1  0  0  0  0
  7 26  1  0  0  0  0
  7 27  1  0  0  0  0
  8 13  2  0  0  0  0
  8 28  1  0  0  0  0
  9 13  1  0  0  0  0
  9 15  1  0  0  0  0
 11 14  1  0  0  0  0
 11 15  1  0  0  0  0
 12 16  1  0  0  0  0
 12 29  1  0  0  0  0
 13 30  1  0  0  0  0
 14 31  1  0  0  0  0
 14 32  1  0  0  0  0
 14 33  1  0  0  0  0
 15 34  1  0  0  0  0
 15 35  1  0  0  0  0
 16 17  2  0  0  0  0
 16 18  1  0  0  0  0
 18 19  2  0  0  0  0
 18 20  1  0  0  0  0
 19 22  1  0  0  0  0
 19 36  1  0  0  0  0
 20 21  1  0  0  0  0
 20 37  1  0  0  0  0
 21 22  2  0  0  0  0
M  END
> <rseq>
1

> <mseq>
80

> <S>
-5.710016

> <rmsd_refine>
1.164082

> <E_conf>
-66.12872

> <E_score1>
-8.773116

> <E_refine>
-29.5725

> <E_score2>
-5.710016

>  <$File>
outputs/pdb_4j58_cleaned.pdb_2024_06_17__22_47_40_V2_BS398_MIN1_/SDF/sdf_db.sdf

> <Rec_index>
1

>  <PLIF_raw>
[22,1206,81,2,3.6]

> <FP:PLIF>
17 18

>  <PLIF_ligidx>
[22,22]

$$$$
80
  MOE2022           3D

 35 36  0  0  1  0  0  0  0  0999 V2000
    1.8370   15.0060   21.8690 O   0  0  0  0  0  0  0  0  0  0  0  0
    1.1900   15.8000   21.1520 C   0  0  0  0  0  0  0  0  0  0  0  0
    0.2530   16.5100   21.5740 O   0  5  0  0  0  0  0  0  0  0  0  0
    1.5470   15.8330   19.6760 C   0  0  1  0  0  0  0  0  0  0  0  0
    0.4200   16.1160   18.6910 C   0  0  0  0  0  0  0  0  0  0  0  0
    2.5790   16.7690   19.2650 N   0  0  0  0  0  0  0  0  0  0  0  0
    1.0800   16.7980   17.5880 N   0  0  0  0  0  0  0  0  0  0  0  0
    2.3610   17.1830   17.9820 C   0  0  0  0  0  0  0  0  0  0  0  0
    3.1830   17.7870   17.2950 O   0  0  0  0  0  0  0  0  0  0  0  0
    0.4790   17.0180   16.3520 C   0  0  0  0  0  0  0  0  0  0  0  0
    1.2900   17.1390   15.1470 C   0  0  0  0  0  0  0  0  0  0  0  0
   -0.7450   17.0540   16.3190 O   0  0  0  0  0  0  0  0  0  0  0  0
    1.1990   18.2750   14.3340 C   0  0  0  0  0  0  0  0  0  0  0  0
    1.9190   18.3540   13.1490 C   0  0  0  0  0  0  0  0  0  0  0  0
    2.1350   16.0940   14.7550 C   0  0  0  0  0  0  0  0  0  0  0  0
    2.8440   16.1650   13.5660 C   0  0  0  0  0  0  0  0  0  0  0  0
    2.7440   17.2940   12.7380 C   0  0  0  0  0  0  0  0  0  0  0  0
    3.4690   17.3700   11.4720 C   0  0  0  0  0  0  0  0  0  0  0  0
    3.5430   18.3800   10.7880 O   0  0  0  0  0  0  0  0  0  0  0  0
    4.1030   16.2510   11.0370 O   0  0  0  0  0  0  0  0  0  0  0  0
    4.7890   16.1600    9.7620 C   0  0  0  0  0  0  0  0  0  0  0  0
    5.7810   14.9990    9.7280 C   0  0  0  0  0  0  0  0  0  0  0  0
    1.9320   14.8620   19.4240 H   0  0  0  0  0  0  0  0  0  0  0  0
   -0.0650   15.2020   18.3750 H   0  0  0  0  0  0  0  0  0  0  0  0
   -0.3340   16.7540   19.1240 H   0  0  0  0  0  0  0  0  0  0  0  0
    3.5310   16.7330   19.6580 H   0  0  0  0  0  0  0  0  0  0  0  0
    0.5690   19.0770   14.6220 H   0  0  0  0  0  0  0  0  0  0  0  0
    1.8330   19.2220   12.5470 H   0  0  0  0  0  0  0  0  0  0  0  0
    2.2210   15.2320   15.3640 H   0  0  0  0  0  0  0  0  0  0  0  0
    3.4590   15.3490   13.2850 H   0  0  0  0  0  0  0  0  0  0  0  0
    4.0450   16.0220    8.9770 H   0  0  0  0  0  0  0  0  0  0  0  0
    5.3300   17.0870    9.5740 H   0  0  0  0  0  0  0  0  0  0  0  0
    6.5530   15.1510   10.4800 H   0  0  0  0  0  0  0  0  0  0  0  0
    5.2580   14.0640    9.9300 H   0  0  0  0  0  0  0  0  0  0  0  0
    6.2440   14.9470    8.7430 H   0  0  0  0  0  0  0  0  0  0  0  0
  1  2  2  0  0  0  0
  2  3  1  0  0  0  0
  2  4  1  0  0  0  0
  4  5  1  0  0  0  0
  4  6  1  0  0  0  0
  4 23  1  0  0  0  0
  5  7  1  0  0  0  0
  5 24  1  0  0  0  0
  5 25  1  0  0  0  0
  6  8  1  0  0  0  0
  6 26  1  0  0  0  0
  7  8  1  0  0  0  0
  7 10  1  0  0  0  0
  8  9  2  0  0  0  0
 10 11  1  0  0  0  0
 10 12  2  0  0  0  0
 11 13  1  0  0  0  0
 11 15  2  0  0  0  0
 13 14  2  0  0  0  0
 13 27  1  0  0  0  0
 14 17  1  0  0  0  0
 14 28  1  0  0  0  0
 15 16  1  0  0  0  0
 15 29  1  0  0  0  0
 16 17  2  0  0  0  0
 16 30  1  0  0  0  0
 17 18  1  0  0  0  0
 18 19  2  0  0  0  0
 18 20  1  0  0  0  0
 20 21  1  0  0  0  0
 21 22  1  0  0  0  0
 21 31  1  0  0  0  0
 21 32  1  0  0  0  0
 22 33  1  0  0  0  0
 22 34  1  0  0  0  0
 22 35  1  0  0  0  0
M  CHG  1   3  -1
M  END
> <rseq>
1

> <mseq>
81

> <S>
-5.415939

> <rmsd_refine>
2.175259

> <E_conf>
-69.6383

> <E_score1>
-7.585897

> <E_refine>
-27.59091

> <E_score2>
-5.415939

>  <$File>
outputs/pdb_4j58_cleaned.pdb_2024_06_17__22_47_40_V2_BS398_MIN1_/SDF/sdf_db.sdf

> <Rec_index>
1

>  <PLIF_raw>
[[3,9,1,1,3,3],[1206,954,1206,1212,1206,1212],[81,62,81,81,81,81],[2,2,7,7,7,7],[2.9,2,4.130801153,4.136606118,2.906238421,0.6111519415]]

> <FP:PLIF>
20 23 17 18 24 25

>  <PLIF_ligidx>
[9,9,3,3,[1,1,3,3],[1,1]]

$$$$
81
  MOE2022           3D

 39 40  0  0  1  0  0  0  0  0999 V2000
    8.2240   21.5180   18.9410 C   0  0  0  0  0  0  0  0  0  0  0  0
    7.4090   22.4600   18.3250 C   0  0  0  0  0  0  0  0  0  0  0  0
    7.7380   20.2400   19.1840 C   0  0  0  0  0  0  0  0  0  0  0  0
    6.4420   19.9030   18.8150 C   0  0  0  0  0  0  0  0  0  0  0  0
    6.1160   22.1170   17.9400 C   0  0  0  0  0  0  0  0  0  0  0  0
    5.6220   20.8320   18.1700 C   0  0  0  0  0  0  0  0  0  0  0  0
    4.2240   20.4870   17.6700 C   0  0  1  0  0  0  0  0  0  0  0  0
    4.1780   20.7160   16.2480 O   0  0  0  0  0  0  0  0  0  0  0  0
    3.7490   19.0480   17.9240 C   0  0  0  0  0  0  0  0  0  0  0  0
    2.3710   18.7990   17.2940 C   0  0  2  0  0  0  0  0  0  0  0  0
    1.8390   17.3530   17.4790 C   0  0  2  0  0  0  0  0  0  0  0  0
    1.2570   16.9920   18.8180 N   0  3  0  0  0  0  0  0  0  0  0  0
    2.4400   19.1010   15.8430 N   0  0  0  0  0  0  0  0  0  0  0  0
    2.9050   20.4810   15.5810 C   0  0  2  0  0  0  0  0  0  0  0  0
    2.8090   16.3930   17.0370 O   0  0  0  0  0  0  0  0  0  0  0  0
    3.0160   20.7890   14.0900 C   0  0  0  0  0  0  0  0  0  0  0  0
    2.1920   16.6200   19.9100 C   0  0  0  0  0  0  0  0  0  0  0  0
    1.4840   15.9380   21.0910 C   0  0  0  0  0  0  0  0  0  0  0  0
    2.2350   21.6460   13.6230 O   0  0  0  0  0  0  0  0  0  0  0  0
    0.2660   16.1740   21.2600 O   0  0  0  0  0  0  0  0  0  0  0  0
    2.1610   15.1660   21.8000 O   0  5  0  0  0  0  0  0  0  0  0  0
    3.8590   20.1550   13.4110 O   0  5  0  0  0  0  0  0  0  0  0  0
    9.2140   21.7710   19.2220 H   0  0  0  0  0  0  0  0  0  0  0  0
    7.7750   23.4350   18.1370 H   0  0  0  0  0  0  0  0  0  0  0  0
    8.3560   19.5150   19.6430 H   0  0  0  0  0  0  0  0  0  0  0  0
    6.0950   18.9270   19.0200 H   0  0  0  0  0  0  0  0  0  0  0  0
    5.5080   22.8370   17.4550 H   0  0  0  0  0  0  0  0  0  0  0  0
    3.5190   21.1730   18.1220 H   0  0  0  0  0  0  0  0  0  0  0  0
    4.4630   18.3930   17.4350 H   0  0  0  0  0  0  0  0  0  0  0  0
    3.7330   18.8350   18.9890 H   0  0  0  0  0  0  0  0  0  0  0  0
    1.6420   19.4700   17.7520 H   0  0  0  0  0  0  0  0  0  0  0  0
    1.0380   17.2730   16.7540 H   0  0  0  0  0  0  0  0  0  0  0  0
    0.6560   17.7360   19.1420 H   0  0  0  0  0  0  0  0  0  0  0  0
    0.6670   16.1850   18.6700 H   0  0  0  0  0  0  0  0  0  0  0  0
    1.5390   18.9790   15.4010 H   0  0  0  0  0  0  0  0  0  0  0  0
    2.1880   21.1640   16.0170 H   0  0  0  0  0  0  0  0  0  0  0  0
    3.1190   16.6400   16.1490 H   0  0  0  0  0  0  0  0  0  0  0  0
    2.9350   15.9260   19.5190 H   0  0  0  0  0  0  0  0  0  0  0  0
    2.7060   17.5090   20.2740 H   0  0  0  0  0  0  0  0  0  0  0  0
  1  2  1  0  0  0  0
  1  3  2  0  0  0  0
  1 23  1  0  0  0  0
  2  5  2  0  0  0  0
  2 24  1  0  0  0  0
  3  4  1  0  0  0  0
  3 25  1  0  0  0  0
  4  6  2  0  0  0  0
  4 26  1  0  0  0  0
  5  6  1  0  0  0  0
  5 27  1  0  0  0  0
  6  7  1  0  0  0  0
  7  8  1  0  0  0  0
  7  9  1  0  0  0  0
  7 28  1  0  0  0  0
  8 14  1  0  0  0  0
  9 10  1  0  0  0  0
  9 29  1  0  0  0  0
  9 30  1  0  0  0  0
 10 11  1  0  0  0  0
 10 13  1  0  0  0  0
 10 31  1  0  0  0  0
 11 12  1  0  0  0  0
 11 15  1  0  0  0  0
 11 32  1  0  0  0  0
 12 17  1  0  0  0  0
 12 33  1  0  0  0  0
 12 34  1  0  0  0  0
 13 14  1  0  0  0  0
 13 35  1  0  0  0  0
 14 16  1  0  0  0  0
 14 36  1  0  0  0  0
 15 37  1  0  0  0  0
 16 19  2  0  0  0  0
 16 22  1  0  0  0  0
 17 18  1  0  0  0  0
 17 38  1  0  0  0  0
 17 39  1  0  0  0  0
 18 20  2  0  0  0  0
 18 21  1  0  0  0  0
M  CHG  1  12   1
M  CHG  1  21  -1
M  CHG  1  22  -1
M  END
> <rseq>
1

> <mseq>
82

> <S>
-5.85466

> <rmsd_refine>
1.010219

> <E_conf>
-19.87527

> <E_score1>
-11.62755

> <E_refine>
-30.85235

> <E_score2>
-5.85466

>  <$File>
outputs/pdb_4j58_cleaned.pdb_2024_06_17__22_47_40_V2_BS398_MIN1_/SDF/sdf_db.sdf

> <Rec_index>
1

>  <PLIF_raw>
[[17,15,20,20,20,21,21,22,22,22],[1617,954,1206,1206,1212,1206,1212,823,826,829],[110,62,81,81,81,81,81,54,54,54],[1,2,2,7,7,7,7,7,7,7],[0.6,0.7,5,3.053624191,1.36629879,2.324558831,2.387948761,0.5281272424,2.48270223,2.770774573]]

> <FP:PLIF>
1 20 17 18 24 26

>  <PLIF_ligidx>
[[22,22,22],15,20,20,[20,20,21,21],17]

$$$$
82
  MOE2022           3D

 41 43  0  0  1  0  0  0  0  0999 V2000
    5.5980   14.2860    9.7630 C   0  0  0  0  0  0  0  0  0  0  0  0
    4.7060   14.0850   10.8110 C   0  0  0  0  0  0  0  0  0  0  0  0
    3.9040   15.1400   11.2610 C   0  0  0  0  0  0  0  0  0  0  0  0
    6.3920   13.2520    9.3590 O   0  0  0  0  0  0  0  0  0  0  0  0
    4.0040   16.3780   10.5940 C   0  0  0  0  0  0  0  0  0  0  0  0
    3.0150   14.9410   12.4000 C   0  0  0  0  0  0  0  0  0  0  0  0
    3.0870   15.8510   13.4280 N   0  0  0  0  0  0  0  0  0  0  0  0
    2.2300   14.0010   12.4840 O   0  0  0  0  0  0  0  0  0  0  0  0
    5.6980   15.5190    9.1180 C   0  0  0  0  0  0  0  0  0  0  0  0
    3.2220   17.4370   10.9600 O   0  0  0  0  0  0  0  0  0  0  0  0
    2.1880   15.8770   14.5790 C   0  0  1  0  0  0  0  0  0  0  0  0
    2.9350   16.3140   15.8550 C   0  0  0  0  0  0  0  0  0  0  0  0
    4.8890   16.5690    9.5340 C   0  0  0  0  0  0  0  0  0  0  0  0
    0.9850   16.8050   14.3180 C   0  0  0  0  0  0  0  0  0  0  0  0
    0.0790   16.9390   15.4180 O   0  0  0  0  0  0  0  0  0  0  0  0
    0.5240   16.3890   16.6540 C   0  0  1  0  0  0  0  0  0  0  0  0
    1.9750   16.8140   16.9490 C   0  0  1  0  0  0  0  0  0  0  0  0
    2.3820   16.3480   18.2640 O   0  0  0  0  0  0  0  0  0  0  0  0
   -0.3630   16.8440   17.8120 C   0  0  0  0  0  0  0  0  0  0  0  0
    0.1710   16.3800   19.0790 O   0  0  0  0  0  0  0  0  0  0  0  0
    1.5350   16.7730   19.3630 C   0  0  1  0  0  0  0  0  0  0  0  0
    2.0000   16.1680   20.6880 C   0  0  0  0  0  0  0  0  0  0  0  0
    4.6400   13.1340   11.2690 H   0  0  0  0  0  0  0  0  0  0  0  0
    6.2470   12.4700    9.9270 H   0  0  0  0  0  0  0  0  0  0  0  0
    3.7420   16.6410   13.3320 H   0  0  0  0  0  0  0  0  0  0  0  0
    6.3760   15.6520    8.3150 H   0  0  0  0  0  0  0  0  0  0  0  0
    2.5590   17.1650   11.6260 H   0  0  0  0  0  0  0  0  0  0  0  0
    1.8040   14.8690   14.7410 H   0  0  0  0  0  0  0  0  0  0  0  0
    3.5130   15.4680   16.2270 H   0  0  0  0  0  0  0  0  0  0  0  0
    3.6290   17.1220   15.6190 H   0  0  0  0  0  0  0  0  0  0  0  0
    4.9380   17.5070    9.0450 H   0  0  0  0  0  0  0  0  0  0  0  0
    1.3630   17.7980   14.0710 H   0  0  0  0  0  0  0  0  0  0  0  0
    0.4310   16.4320   13.4560 H   0  0  0  0  0  0  0  0  0  0  0  0
    0.4650   15.3040   16.5980 H   0  0  0  0  0  0  0  0  0  0  0  0
    2.0150   17.9040   16.9790 H   0  0  0  0  0  0  0  0  0  0  0  0
   -0.4090   17.9330   17.8260 H   0  0  0  0  0  0  0  0  0  0  0  0
   -1.3670   16.4380   17.6860 H   0  0  0  0  0  0  0  0  0  0  0  0
    1.5690   17.8530   19.4130 H   0  0  0  0  0  0  0  0  0  0  0  0
    1.3600   16.5080   21.5000 H   0  0  0  0  0  0  0  0  0  0  0  0
    1.9430   15.0830   20.6440 H   0  0  0  0  0  0  0  0  0  0  0  0
    3.0290   16.4580   20.8980 H   0  0  0  0  0  0  0  0  0  0  0  0
  1  2  1  0  0  0  0
  1  4  1  0  0  0  0
  1  9  2  0  0  0  0
  2  3  2  0  0  0  0
  2 23  1  0  0  0  0
  3  5  1  0  0  0  0
  3  6  1  0  0  0  0
  4 24  1  0  0  0  0
  5 10  1  0  0  0  0
  5 13  2  0  0  0  0
  6  7  1  0  0  0  0
  6  8  2  0  0  0  0
  7 11  1  0  0  0  0
  7 25  1  0  0  0  0
  9 13  1  0  0  0  0
  9 26  1  0  0  0  0
 10 27  1  0  0  0  0
 11 12  1  0  0  0  0
 11 14  1  0  0  0  0
 11 28  1  0  0  0  0
 12 17  1  0  0  0  0
 12 29  1  0  0  0  0
 12 30  1  0  0  0  0
 13 31  1  0  0  0  0
 14 15  1  0  0  0  0
 14 32  1  0  0  0  0
 14 33  1  0  0  0  0
 15 16  1  0  0  0  0
 16 17  1  0  0  0  0
 16 19  1  0  0  0  0
 16 34  1  0  0  0  0
 17 18  1  0  0  0  0
 17 35  1  0  0  0  0
 18 21  1  0  0  0  0
 19 20  1  0  0  0  0
 19 36  1  0  0  0  0
 19 37  1  0  0  0  0
 20 21  1  0  0  0  0
 21 22  1  0  0  0  0
 21 38  1  0  0  0  0
 22 39  1  0  0  0  0
 22 40  1  0  0  0  0
 22 41  1  0  0  0  0
M  END
> <rseq>
1

> <mseq>
83

> <S>
-5.666259

> <rmsd_refine>
0.9315428

> <E_conf>
-34.98492

> <E_score1>
-9.124319

> <E_refine>
-29.91546

> <E_score2>
-5.666259

>  <$File>
outputs/pdb_4j58_cleaned.pdb_2024_06_17__22_47_40_V2_BS398_MIN1_/SDF/sdf_db.sdf

> <Rec_index>
1

>  <PLIF_raw>
[[1,2,3,5,13,9],[823,823,823,823,823,823],[54,54,54,54,54,54],[10,10,10,10,10,10],[0.5,0.5,0.5,0.5,0.5,0.5]]

> <FP:PLIF>
2

>  <PLIF_ligidx>
[[1,2,3,5,13,9]]

$$$$
83
  MOE2022           3D

 38 41  0  0  1  0  0  0  0  0999 V2000
    6.8950   21.2040   19.4500 C   0  0  0  0  0  0  0  0  0  0  0  0
    7.1890   21.9040   18.2790 C   0  0  0  0  0  0  0  0  0  0  0  0
    5.8550   20.2870   19.4690 C   0  0  0  0  0  0  0  0  0  0  0  0
    6.4370   21.6850   17.1350 C   0  0  0  0  0  0  0  0  0  0  0  0
    5.3800   20.7590   17.1440 C   0  0  0  0  0  0  0  0  0  0  0  0
    5.0990   20.0530   18.3160 C   0  0  0  0  0  0  0  0  0  0  0  0
    4.0810   19.0930   18.3240 N   0  0  0  0  0  0  0  0  0  0  0  0
    4.5650   20.5080   15.9780 C   0  0  0  0  0  0  0  0  0  0  0  0
    3.4720   19.6310   16.1270 N   0  0  0  0  0  0  0  0  0  0  0  0
    4.7800   21.0200   14.8760 O   0  0  0  0  0  0  0  0  0  0  0  0
    3.3130   18.8610   17.3210 C   0  0  0  0  0  0  0  0  0  0  0  0
    2.2250   17.7370   17.3160 C   0  0  1  0  0  0  0  0  0  0  0  0
    1.8550   17.1380   18.7170 C   0  0  0  0  0  0  0  0  0  0  0  0
    2.8450   16.8140   19.6530 C   0  0  0  0  0  0  0  0  0  0  0  0
    2.4780   19.5810   15.0920 C   0  0  0  0  0  0  0  0  0  0  0  0
    1.2960   18.9830   15.3020 C   0  0  0  0  0  0  0  0  0  0  0  0
    0.9700   18.3200   16.6140 C   0  0  0  0  0  0  0  0  0  0  0  0
    0.5300   16.8310   19.0640 C   0  0  0  0  0  0  0  0  0  0  0  0
    0.2140   16.2860   20.3060 C   0  0  0  0  0  0  0  0  0  0  0  0
    1.2150   16.0190   21.2270 C   0  0  0  0  0  0  0  0  0  0  0  0
    2.5330   16.2680   20.8900 C   0  0  0  0  0  0  0  0  0  0  0  0
    2.7390   16.5540   16.4580 C   0  0  0  0  0  0  0  0  0  0  0  0
    7.4710   21.3740   20.3230 H   0  0  0  0  0  0  0  0  0  0  0  0
    7.9860   22.6020   18.2680 H   0  0  0  0  0  0  0  0  0  0  0  0
    5.6320   19.7560   20.3550 H   0  0  0  0  0  0  0  0  0  0  0  0
    6.6620   22.2240   16.2500 H   0  0  0  0  0  0  0  0  0  0  0  0
    3.8610   16.9700   19.4390 H   0  0  0  0  0  0  0  0  0  0  0  0
    2.7430   20.0600   14.1840 H   0  0  0  0  0  0  0  0  0  0  0  0
    0.5440   18.9680   14.5550 H   0  0  0  0  0  0  0  0  0  0  0  0
    0.2470   17.5430   16.4100 H   0  0  0  0  0  0  0  0  0  0  0  0
    0.4840   19.0420   17.2570 H   0  0  0  0  0  0  0  0  0  0  0  0
   -0.2670   17.0050   18.3930 H   0  0  0  0  0  0  0  0  0  0  0  0
   -0.7970   16.0800   20.5500 H   0  0  0  0  0  0  0  0  0  0  0  0
    0.9860   15.6300   22.1810 H   0  0  0  0  0  0  0  0  0  0  0  0
    3.3050   16.0430   21.5770 H   0  0  0  0  0  0  0  0  0  0  0  0
    3.1430   16.8850   15.5020 H   0  0  0  0  0  0  0  0  0  0  0  0
    3.5160   15.9970   16.9750 H   0  0  0  0  0  0  0  0  0  0  0  0
    1.9270   15.8570   16.2490 H   0  0  0  0  0  0  0  0  0  0  0  0
  1  2  2  0  0  0  0
  1  3  1  0  0  0  0
  1 23  1  0  0  0  0
  2  4  1  0  0  0  0
  2 24  1  0  0  0  0
  3  6  2  0  0  0  0
  3 25  1  0  0  0  0
  4  5  2  0  0  0  0
  4 26  1  0  0  0  0
  5  6  1  0  0  0  0
  5  8  1  0  0  0  0
  6  7  1  0  0  0  0
  7 11  2  0  0  0  0
  8  9  1  0  0  0  0
  8 10  2  0  0  0  0
  9 11  1  0  0  0  0
  9 15  1  0  0  0  0
 11 12  1  0  0  0  0
 12 13  1  0  0  0  0
 12 17  1  0  0  0  0
 12 22  1  0  0  0  0
 13 14  2  0  0  0  0
 13 18  1  0  0  0  0
 14 21  1  0  0  0  0
 14 27  1  0  0  0  0
 15 16  2  0  0  0  0
 15 28  1  0  0  0  0
 16 17  1  0  0  0  0
 16 29  1  0  0  0  0
 17 30  1  0  0  0  0
 17 31  1  0  0  0  0
 18 19  2  0  0  0  0
 18 32  1  0  0  0  0
 19 20  1  0  0  0  0
 19 33  1  0  0  0  0
 20 21  2  0  0  0  0
 20 34  1  0  0  0  0
 21 35  1  0  0  0  0
 22 36  1  0  0  0  0
 22 37  1  0  0  0  0
 22 38  1  0  0  0  0
M  END
> <rseq>
1

> <mseq>
84

> <S>
-5.554282

> <rmsd_refine>
1.119019

> <E_conf>
31.33411

> <E_score1>
-8.096492

> <E_refine>
-22.73499

> <E_score2>
-5.554282

>  <$File>
outputs/pdb_4j58_cleaned.pdb_2024_06_17__22_47_40_V2_BS398_MIN1_/SDF/sdf_db.sdf

> <Rec_index>
1

>  <PLIF_raw>
[[13,18,19,20,21,14],[1212,1212,1212,1212,1212,1212],[81,81,81,81,81,81],[10,10,10,10,10,10],[0.6,0.6,0.6,0.6,0.6,0.6]]

> <FP:PLIF>
27

>  <PLIF_ligidx>
[[13,18,19,20,21,14]]

$$$$
84
  MOE2022           3D

 34 35  0  0  1  0  0  0  0  0999 V2000
    4.7500   14.7330    9.8510 C   0  0  0  0  0  0  0  0  0  0  0  0
    4.9720   15.9960    9.3160 C   0  0  0  0  0  0  0  0  0  0  0  0
    4.0040   14.6230   11.0180 C   0  0  0  0  0  0  0  0  0  0  0  0
    5.7030   16.1080    8.1810 F   0  0  0  0  0  0  0  0  0  0  0  0
    3.4940   15.7660   11.6560 C   0  0  0  0  0  0  0  0  0  0  0  0
    2.7540   15.6430   12.8970 C   0  0  0  0  0  0  0  0  0  0  0  0
    4.4660   17.1460    9.9090 C   0  0  0  0  0  0  0  0  0  0  0  0
    3.7290   17.0270   11.0810 C   0  0  0  0  0  0  0  0  0  0  0  0
    3.0820   16.3640   14.0350 N   0  0  0  0  0  0  0  0  0  0  0  0
    1.6850   14.8520   13.2370 C   0  0  0  0  0  0  0  0  0  0  0  0
    2.2480   16.0090   15.0570 C   0  0  0  0  0  0  0  0  0  0  0  0
    2.3830   16.5240   16.3610 N   0  0  0  0  0  0  0  0  0  0  0  0
    3.1380   17.7540   16.6030 C   0  0  0  0  0  0  0  0  0  0  0  0
    1.3600   15.0870   14.5750 C   0  0  0  0  0  0  0  0  0  0  0  0
    2.9890   18.3270   18.0280 C   0  0  1  0  0  0  0  0  0  0  0  0
    3.0800   17.2860   19.0890 N   0  0  0  0  0  0  0  0  0  0  0  0
    1.9500   16.7570   19.6930 C   0  0  0  0  0  0  0  0  0  0  0  0
    0.8490   16.8000   19.0810 O   0  5  0  0  0  0  0  0  0  0  0  0
    2.1160   16.2460   20.8340 O   0  0  0  0  0  0  0  0  0  0  0  0
    3.9830   19.4720   18.2190 C   0  0  0  0  0  0  0  0  0  0  0  0
    3.7480   20.5440   17.6160 O   0  5  0  0  0  0  0  0  0  0  0  0
    5.0130   19.2820   18.9100 O   0  0  0  0  0  0  0  0  0  0  0  0
    5.1430   13.8710    9.3780 H   0  0  0  0  0  0  0  0  0  0  0  0
    3.8250   13.6670   11.4390 H   0  0  0  0  0  0  0  0  0  0  0  0
    4.6370   18.0960    9.4730 H   0  0  0  0  0  0  0  0  0  0  0  0
    3.3380   17.8960   11.5460 H   0  0  0  0  0  0  0  0  0  0  0  0
    3.8500   17.0480   14.1200 H   0  0  0  0  0  0  0  0  0  0  0  0
    1.1950   14.1750   12.5860 H   0  0  0  0  0  0  0  0  0  0  0  0
    1.5600   16.4060   16.9800 H   0  0  0  0  0  0  0  0  0  0  0  0
    4.1900   17.5580   16.4040 H   0  0  0  0  0  0  0  0  0  0  0  0
    2.8070   18.5170   15.8970 H   0  0  0  0  0  0  0  0  0  0  0  0
    0.5830   14.6310   15.1300 H   0  0  0  0  0  0  0  0  0  0  0  0
    2.0020   18.7670   18.0690 H   0  0  0  0  0  0  0  0  0  0  0  0
    3.8670   17.4210   19.7370 H   0  0  0  0  0  0  0  0  0  0  0  0
  1  2  2  0  0  0  0
  1  3  1  0  0  0  0
  1 23  1  0  0  0  0
  2  4  1  0  0  0  0
  2  7  1  0  0  0  0
  3  5  2  0  0  0  0
  3 24  1  0  0  0  0
  5  6  1  0  0  0  0
  5  8  1  0  0  0  0
  6  9  1  0  0  0  0
  6 10  2  0  0  0  0
  7  8  2  0  0  0  0
  7 25  1  0  0  0  0
  8 26  1  0  0  0  0
  9 11  1  0  0  0  0
  9 27  1  0  0  0  0
 10 14  1  0  0  0  0
 10 28  1  0  0  0  0
 11 12  1  0  0  0  0
 11 14  2  0  0  0  0
 12 13  1  0  0  0  0
 12 29  1  0  0  0  0
 13 15  1  0  0  0  0
 13 30  1  0  0  0  0
 13 31  1  0  0  0  0
 14 32  1  0  0  0  0
 15 16  1  0  0  0  0
 15 20  1  0  0  0  0
 15 33  1  0  0  0  0
 16 17  1  0  0  0  0
 16 34  1  0  0  0  0
 17 18  1  0  0  0  0
 17 19  2  0  0  0  0
 20 21  1  0  0  0  0
 20 22  2  0  0  0  0
M  CHG  1  18  -1
M  CHG  1  21  -1
M  END
> <rseq>
1

> <mseq>
85

> <S>
-5.424222

> <rmsd_refine>
1.107416

> <E_conf>
-158.6209

> <E_score1>
-10.04652

> <E_refine>
-26.11007

> <E_score2>
-5.424222

>  <$File>
outputs/pdb_4j58_cleaned.pdb_2024_06_17__22_47_40_V2_BS398_MIN1_/SDF/sdf_db.sdf

> <Rec_index>
1

>  <PLIF_raw>
[[],[],[],[],[]]

>  <PLIF_ligidx>
[]

$$$$
85
  MOE2022           3D

 39 40  0  0  1  0  0  0  0  0999 V2000
    6.9580   21.1340   19.3550 C   0  0  0  0  0  0  0  0  0  0  0  0
    6.2040   20.0090   19.0460 C   0  0  0  0  0  0  0  0  0  0  0  0
    4.9750   20.1300   18.3850 C   0  0  0  0  0  0  0  0  0  0  0  0
    4.2020   18.9380   18.0730 C   0  0  0  0  0  0  0  0  0  0  0  0
    3.5070   18.6910   16.9190 C   0  0  0  0  0  0  0  0  0  0  0  0
    3.4500   19.6390   15.8030 C   0  0  0  0  0  0  0  0  0  0  0  0
    2.7160   17.3800   16.7210 C   0  0  2  0  0  0  0  0  0  0  0  0
    6.4900   22.3980   19.0160 C   0  0  0  0  0  0  0  0  0  0  0  0
    4.5040   21.4090   18.0640 C   0  0  0  0  0  0  0  0  0  0  0  0
    3.5780   19.2730   14.6350 O   0  0  0  0  0  0  0  0  0  0  0  0
    3.2300   20.9930   16.0220 N   0  0  0  0  0  0  0  0  0  0  0  0
    2.4860   16.6550   17.9690 N   0  0  0  0  0  0  0  0  0  0  0  0
    5.2630   22.5350   18.3750 C   0  0  0  0  0  0  0  0  0  0  0  0
    3.2900   21.9680   14.9250 C   0  0  0  0  0  0  0  0  0  0  0  0
    3.1720   21.5390   17.3710 C   0  0  0  0  0  0  0  0  0  0  0  0
    1.6260   17.0610   18.9070 C   0  0  0  0  0  0  0  0  0  0  0  0
    0.8940   18.0300   18.7380 O   0  0  0  0  0  0  0  0  0  0  0  0
    1.6970   16.3160   20.2170 C   0  0  0  0  0  0  0  0  0  0  0  0
    0.3650   15.8150   20.6980 C   0  0  0  0  0  0  0  0  0  0  0  0
   -0.1290   16.3460   21.7150 O   0  5  0  0  0  0  0  0  0  0  0  0
    3.3090   16.3970   15.6980 C   0  0  0  0  0  0  0  0  0  0  0  0
   -0.1500   14.8640   20.0740 O   0  0  0  0  0  0  0  0  0  0  0  0
    7.8920   21.0290   19.8430 H   0  0  0  0  0  0  0  0  0  0  0  0
    6.5710   19.0500   19.3040 H   0  0  0  0  0  0  0  0  0  0  0  0
    4.2140   18.2150   18.8450 H   0  0  0  0  0  0  0  0  0  0  0  0
    1.7450   17.6670   16.3370 H   0  0  0  0  0  0  0  0  0  0  0  0
    7.0690   23.2540   19.2460 H   0  0  0  0  0  0  0  0  0  0  0  0
    3.0600   15.8490   18.1640 H   0  0  0  0  0  0  0  0  0  0  0  0
    4.9090   23.5010   18.1210 H   0  0  0  0  0  0  0  0  0  0  0  0
    2.6920   22.8440   15.1360 H   0  0  0  0  0  0  0  0  0  0  0  0
    4.3050   22.3000   14.7560 H   0  0  0  0  0  0  0  0  0  0  0  0
    2.9190   21.5600   13.9950 H   0  0  0  0  0  0  0  0  0  0  0  0
    2.4070   21.0290   17.9420 H   0  0  0  0  0  0  0  0  0  0  0  0
    2.8580   22.5740   17.3520 H   0  0  0  0  0  0  0  0  0  0  0  0
    2.3540   15.4680   20.1190 H   0  0  0  0  0  0  0  0  0  0  0  0
    2.1470   16.9530   20.9620 H   0  0  0  0  0  0  0  0  0  0  0  0
    4.2640   16.0080   16.0390 H   0  0  0  0  0  0  0  0  0  0  0  0
    2.6350   15.5490   15.5710 H   0  0  0  0  0  0  0  0  0  0  0  0
    3.4390   16.8440   14.7160 H   0  0  0  0  0  0  0  0  0  0  0  0
  1  2  1  0  0  0  0
  1  8  2  0  0  0  0
  1 23  1  0  0  0  0
  2  3  2  0  0  0  0
  2 24  1  0  0  0  0
  3  4  1  0  0  0  0
  3  9  1  0  0  0  0
  4  5  2  0  0  0  0
  4 25  1  0  0  0  0
  5  6  1  0  0  0  0
  5  7  1  0  0  0  0
  6 10  2  0  0  0  0
  6 11  1  0  0  0  0
  7 12  1  0  0  0  0
  7 21  1  0  0  0  0
  7 26  1  0  0  0  0
  8 13  1  0  0  0  0
  8 27  1  0  0  0  0
  9 13  2  0  0  0  0
  9 15  1  0  0  0  0
 11 14  1  0  0  0  0
 11 15  1  0  0  0  0
 12 16  1  0  0  0  0
 12 28  1  0  0  0  0
 13 29  1  0  0  0  0
 14 30  1  0  0  0  0
 14 31  1  0  0  0  0
 14 32  1  0  0  0  0
 15 33  1  0  0  0  0
 15 34  1  0  0  0  0
 16 17  2  0  0  0  0
 16 18  1  0  0  0  0
 18 19  1  0  0  0  0
 18 35  1  0  0  0  0
 18 36  1  0  0  0  0
 19 20  1  0  0  0  0
 19 22  2  0  0  0  0
 21 37  1  0  0  0  0
 21 38  1  0  0  0  0
 21 39  1  0  0  0  0
M  CHG  1  20  -1
M  END
> <rseq>
1

> <mseq>
86

> <S>
-5.722413

> <rmsd_refine>
1.4574

> <E_conf>
-219.401

> <E_score1>
-8.580211

> <E_refine>
-33.55878

> <E_score2>
-5.722413

>  <$File>
outputs/pdb_4j58_cleaned.pdb_2024_06_17__22_47_40_V2_BS398_MIN1_/SDF/sdf_db.sdf

> <Rec_index>
1

>  <PLIF_raw>
[[12,20,22,20,20,22,22,1,1,1,1,1,1],[1617,1206,1212,1206,1212,1206,1212,1651,1655,1659,1657,1653,1650],[110,81,81,81,81,81,81,112,112,112,112,112,112],[1,2,2,7,7,7,7,10,10,10,10,10,10],[0.6,3.8,3.1,4.556353326,1.025789422,1.520802324,5.224549189,0.6,0.6,0.6,0.6,0.6,0.6]]

> <FP:PLIF>
17 18 24 25 26 15

>  <PLIF_ligidx>
[[20,22],[20,22],[20,20,22,22],[20,22],12,[1,1,1,1,1,1]]

$$$$
86
  MOE2022           3D

 37 38  0  0  1  0  0  0  0  0999 V2000
    5.0210   14.6030    9.5680 C   0  0  0  0  0  0  0  0  0  0  0  0
    5.1620   15.8720    9.0210 C   0  0  0  0  0  0  0  0  0  0  0  0
    4.2710   14.4540   10.7290 C   0  0  0  0  0  0  0  0  0  0  0  0
    5.8880   16.0240    7.8910 F   0  0  0  0  0  0  0  0  0  0  0  0
    3.6780   15.5680   11.3470 C   0  0  0  0  0  0  0  0  0  0  0  0
    2.9280   15.4150   12.5780 C   0  0  0  0  0  0  0  0  0  0  0  0
    4.5770   16.9920    9.5970 C   0  0  0  0  0  0  0  0  0  0  0  0
    3.8380   16.8360   10.7630 C   0  0  0  0  0  0  0  0  0  0  0  0
    3.1510   16.2270   13.6750 N   0  0  0  0  0  0  0  0  0  0  0  0
    1.9480   14.5280   12.9490 C   0  0  0  0  0  0  0  0  0  0  0  0
    2.3460   15.8400   14.7070 C   0  0  0  0  0  0  0  0  0  0  0  0
    2.4090   16.4510   15.9750 N   0  0  0  0  0  0  0  0  0  0  0  0
    2.9560   17.8040   16.0640 C   0  0  0  0  0  0  0  0  0  0  0  0
    1.5740   14.8000   14.2680 C   0  0  0  0  0  0  0  0  0  0  0  0
    2.6920   18.5140   17.4050 C   0  0  1  0  0  0  0  0  0  0  0  0
    3.1770   17.7310   18.5540 N   0  0  0  0  0  0  0  0  0  0  0  0
    2.3190   17.0150   19.3740 C   0  0  0  0  0  0  0  0  0  0  0  0
    1.1590   16.7450   18.9660 O   0  5  0  0  0  0  0  0  0  0  0  0
    2.7900   16.6860   20.4920 O   0  0  0  0  0  0  0  0  0  0  0  0
    3.3110   19.9290   17.4110 C   0  0  0  0  0  0  0  0  0  0  0  0
    2.7140   20.7840   16.4240 O   0  0  0  0  0  0  0  0  0  0  0  0
    4.7330   19.9020   17.1800 O   0  0  0  0  0  0  0  0  0  0  0  0
    5.4770   13.7640    9.1080 H   0  0  0  0  0  0  0  0  0  0  0  0
    4.1540   13.4930   11.1600 H   0  0  0  0  0  0  0  0  0  0  0  0
    4.6900   17.9470    9.1530 H   0  0  0  0  0  0  0  0  0  0  0  0
    3.3870   17.6820   11.2140 H   0  0  0  0  0  0  0  0  0  0  0  0
    3.8390   16.9940   13.7270 H   0  0  0  0  0  0  0  0  0  0  0  0
    1.5480   13.7660   12.3320 H   0  0  0  0  0  0  0  0  0  0  0  0
    1.5950   16.2760   16.5890 H   0  0  0  0  0  0  0  0  0  0  0  0
    4.0320   17.7500   15.8990 H   0  0  0  0  0  0  0  0  0  0  0  0
    2.5200   18.4100   15.2690 H   0  0  0  0  0  0  0  0  0  0  0  0
    0.8370   14.2970   14.8360 H   0  0  0  0  0  0  0  0  0  0  0  0
    1.6160   18.6520   17.5120 H   0  0  0  0  0  0  0  0  0  0  0  0
    3.9940   18.1060   19.0500 H   0  0  0  0  0  0  0  0  0  0  0  0
    3.1500   20.3940   18.3720 H   0  0  0  0  0  0  0  0  0  0  0  0
    1.7640   20.8800   16.6030 H   0  0  0  0  0  0  0  0  0  0  0  0
    5.1470   19.2510   17.7690 H   0  0  0  0  0  0  0  0  0  0  0  0
  1  2  2  0  0  0  0
  1  3  1  0  0  0  0
  1 23  1  0  0  0  0
  2  4  1  0  0  0  0
  2  7  1  0  0  0  0
  3  5  2  0  0  0  0
  3 24  1  0  0  0  0
  5  6  1  0  0  0  0
  5  8  1  0  0  0  0
  6  9  1  0  0  0  0
  6 10  2  0  0  0  0
  7  8  2  0  0  0  0
  7 25  1  0  0  0  0
  8 26  1  0  0  0  0
  9 11  1  0  0  0  0
  9 27  1  0  0  0  0
 10 14  1  0  0  0  0
 10 28  1  0  0  0  0
 11 12  1  0  0  0  0
 11 14  2  0  0  0  0
 12 13  1  0  0  0  0
 12 29  1  0  0  0  0
 13 15  1  0  0  0  0
 13 30  1  0  0  0  0
 13 31  1  0  0  0  0
 14 32  1  0  0  0  0
 15 16  1  0  0  0  0
 15 20  1  0  0  0  0
 15 33  1  0  0  0  0
 16 17  1  0  0  0  0
 16 34  1  0  0  0  0
 17 18  1  0  0  0  0
 17 19  2  0  0  0  0
 20 21  1  0  0  0  0
 20 22  1  0  0  0  0
 20 35  1  0  0  0  0
 21 36  1  0  0  0  0
 22 37  1  0  0  0  0
M  CHG  1  18  -1
M  END
> <rseq>
1

> <mseq>
87

> <S>
-5.256749

> <rmsd_refine>
1.092877

> <E_conf>
-141.8441

> <E_score1>
-9.908881

> <E_refine>
-26.48218

> <E_score2>
-5.256749

>  <$File>
outputs/pdb_4j58_cleaned.pdb_2024_06_17__22_47_40_V2_BS398_MIN1_/SDF/sdf_db.sdf

> <Rec_index>
1

>  <PLIF_raw>
[20,1504,101,3,0.5]

> <FP:PLIF>
8

>  <PLIF_ligidx>
20

$$$$
87
  MOE2022           3D

 43 44  0  0  1  0  0  0  0  0999 V2000
    1.9370   14.9530   21.9400 O   0  0  0  0  0  0  0  0  0  0  0  0
    1.2540   15.7650   21.2790 C   0  0  0  0  0  0  0  0  0  0  0  0
    0.2890   16.4070   21.7470 O   0  5  0  0  0  0  0  0  0  0  0  0
    1.5980   15.9210   19.8080 C   0  0  1  0  0  0  0  0  0  0  0  0
    0.4070   16.0590   18.8640 C   0  0  0  0  0  0  0  0  0  0  0  0
    2.4380   17.0580   19.4630 N   0  0  0  0  0  0  0  0  0  0  0  0
    0.8290   17.0610   17.9010 N   0  0  0  0  0  0  0  0  0  0  0  0
    1.9550   17.7020   18.3620 C   0  0  0  0  0  0  0  0  0  0  0  0
   -0.1040   17.6680   16.9570 C   0  0  0  0  0  0  0  0  0  0  0  0
    2.4670   18.7030   17.8600 O   0  0  0  0  0  0  0  0  0  0  0  0
    0.4490   17.7860   15.5250 C   0  0  0  0  0  0  0  0  0  0  0  0
    1.1350   16.5140   14.9920 C   0  0  1  0  0  0  0  0  0  0  0  0
    0.2510   15.3470   15.1550 N   0  3  0  0  0  0  0  0  0  0  0  0
    1.5320   16.7450   13.5200 C   0  0  0  0  0  0  0  0  0  0  0  0
    2.4670   15.6920   12.8760 C   0  0  2  0  0  0  0  0  0  0  0  0
    3.1860   16.2720   11.6320 C   0  0  2  0  0  0  0  0  0  0  0  0
    2.2220   16.7540   10.6640 O   0  0  0  0  0  0  0  0  0  0  0  0
    1.7570   14.3630   12.5040 C   0  0  0  0  0  0  0  0  0  0  0  0
    4.1000   15.2490   10.9830 C   0  0  0  0  0  0  0  0  0  0  0  0
    2.5950   13.4390   11.6410 C   0  0  0  0  0  0  0  0  0  0  0  0
    5.1580   15.5960   10.5070 O   0  0  0  0  0  0  0  0  0  0  0  0
    3.6790   13.8640   10.9600 C   0  0  0  0  0  0  0  0  0  0  0  0
    2.1430   15.0470   19.5010 H   0  0  0  0  0  0  0  0  0  0  0  0
    0.1650   15.1170   18.3920 H   0  0  0  0  0  0  0  0  0  0  0  0
   -0.4760   16.3980   19.3880 H   0  0  0  0  0  0  0  0  0  0  0  0
    2.9990   17.5660   20.1620 H   0  0  0  0  0  0  0  0  0  0  0  0
   -1.0160   17.0870   16.9380 H   0  0  0  0  0  0  0  0  0  0  0  0
   -0.3980   18.6450   17.3160 H   0  0  0  0  0  0  0  0  0  0  0  0
   -0.3780   18.0600   14.8680 H   0  0  0  0  0  0  0  0  0  0  0  0
    1.1720   18.6020   15.5070 H   0  0  0  0  0  0  0  0  0  0  0  0
    2.0420   16.3490   15.5760 H   0  0  0  0  0  0  0  0  0  0  0  0
   -0.6010   15.4880   14.6320 H   0  0  0  0  0  0  0  0  0  0  0  0
    0.7230   14.5170   14.8310 H   0  0  0  0  0  0  0  0  0  0  0  0
    0.0380   15.2410   16.1380 H   0  0  0  0  0  0  0  0  0  0  0  0
    0.6290   16.8450   12.9150 H   0  0  0  0  0  0  0  0  0  0  0  0
    2.0540   17.7030   13.4810 H   0  0  0  0  0  0  0  0  0  0  0  0
    3.2570   15.4440   13.5860 H   0  0  0  0  0  0  0  0  0  0  0  0
    3.7750   17.1310   11.9230 H   0  0  0  0  0  0  0  0  0  0  0  0
    1.7390   17.5190   11.0150 H   0  0  0  0  0  0  0  0  0  0  0  0
    1.4920   13.8280   13.4030 H   0  0  0  0  0  0  0  0  0  0  0  0
    0.8280   14.5690   11.9890 H   0  0  0  0  0  0  0  0  0  0  0  0
    2.2890   12.4250   11.6030 H   0  0  0  0  0  0  0  0  0  0  0  0
    4.2640   13.1910   10.3870 H   0  0  0  0  0  0  0  0  0  0  0  0
  1  2  2  0  0  0  0
  2  3  1  0  0  0  0
  2  4  1  0  0  0  0
  4  5  1  0  0  0  0
  4  6  1  0  0  0  0
  4 23  1  0  0  0  0
  5  7  1  0  0  0  0
  5 24  1  0  0  0  0
  5 25  1  0  0  0  0
  6  8  1  0  0  0  0
  6 26  1  0  0  0  0
  7  8  1  0  0  0  0
  7  9  1  0  0  0  0
  8 10  2  0  0  0  0
  9 11  1  0  0  0  0
  9 27  1  0  0  0  0
  9 28  1  0  0  0  0
 11 12  1  0  0  0  0
 11 29  1  0  0  0  0
 11 30  1  0  0  0  0
 12 13  1  0  0  0  0
 12 14  1  0  0  0  0
 12 31  1  0  0  0  0
 13 32  1  0  0  0  0
 13 33  1  0  0  0  0
 13 34  1  0  0  0  0
 14 15  1  0  0  0  0
 14 35  1  0  0  0  0
 14 36  1  0  0  0  0
 15 16  1  0  0  0  0
 15 18  1  0  0  0  0
 15 37  1  0  0  0  0
 16 17  1  0  0  0  0
 16 19  1  0  0  0  0
 16 38  1  0  0  0  0
 17 39  1  0  0  0  0
 18 20  1  0  0  0  0
 18 40  1  0  0  0  0
 18 41  1  0  0  0  0
 19 21  2  0  0  0  0
 19 22  1  0  0  0  0
 20 22  2  0  0  0  0
 20 42  1  0  0  0  0
 22 43  1  0  0  0  0
M  CHG  1   3  -1
M  CHG  1  13   1
M  END
> <rseq>
1

> <mseq>
88

> <S>
-5.492905

> <rmsd_refine>
2.338944

> <E_conf>
-124.5636

> <E_score1>
-8.379766

> <E_refine>
-28.55722

> <E_score2>
-5.492905

>  <$File>
outputs/pdb_4j58_cleaned.pdb_2024_06_17__22_47_40_V2_BS398_MIN1_/SDF/sdf_db.sdf

> <Rec_index>
1

>  <PLIF_raw>
[[3,21,1,1,3,3],[1206,823,1206,1212,1206,1212],[81,54,81,81,81,81],[2,2,7,7,7,7],[4.4,1.7,3.985106117,3.999173451,3.860712305,0.8480892708]]

> <FP:PLIF>
6 19 17 18 24 25

>  <PLIF_ligidx>
[21,21,3,3,[1,1,3,3],[1,1,3]]

$$$$
88
  MOE2022           3D

 39 40  0  0  1  0  0  0  0  0999 V2000
    0.8990   16.0860   20.6840 C   0  0  0  0  0  0  0  0  0  0  0  0
   -0.3380   15.5920   20.2840 C   0  0  0  0  0  0  0  0  0  0  0  0
   -0.6420   15.4760   18.9280 C   0  0  0  0  0  0  0  0  0  0  0  0
    0.2830   15.8690   17.9660 C   0  0  0  0  0  0  0  0  0  0  0  0
    1.8220   16.4740   19.7150 C   0  0  0  0  0  0  0  0  0  0  0  0
    3.0320   16.9480   20.1250 O   0  0  0  0  0  0  0  0  0  0  0  0
    1.5270   16.3880   18.3450 C   0  0  0  0  0  0  0  0  0  0  0  0
    2.4760   16.8530   17.3420 C   0  0  0  0  0  0  0  0  0  0  0  0
    2.6010   18.2220   17.1040 N   0  0  0  0  0  0  0  0  0  0  0  0
    1.6500   19.1930   17.3630 C   0  0  0  0  0  0  0  0  0  0  0  0
    3.8170   18.8400   16.5800 C   0  0  0  0  0  0  0  0  0  0  0  0
    0.4880   18.9380   17.6510 O   0  0  0  0  0  0  0  0  0  0  0  0
    2.2350   20.5000   17.1770 C   0  0  0  0  0  0  0  0  0  0  0  0
    3.2200   16.1080   16.7150 O   0  0  0  0  0  0  0  0  0  0  0  0
    1.6720   21.5520   17.3840 O   0  0  0  0  0  0  0  0  0  0  0  0
    3.6550   20.3760   16.6660 C   0  0  2  0  0  0  0  0  0  0  0  0
    3.7560   21.0180   15.2650 C   0  0  0  0  0  0  0  0  0  0  0  0
    4.6400   20.9930   17.6970 C   0  0  0  0  0  0  0  0  0  0  0  0
    6.1390   20.8460   17.3730 C   0  0  2  0  0  0  0  0  0  0  0  0
    6.9360   21.0800   18.5510 O   0  0  0  0  0  0  0  0  0  0  0  0
    6.5560   21.7680   16.3510 O   0  0  0  0  0  0  0  0  0  0  0  0
    8.3160   20.6520   18.4930 C   0  0  0  0  0  0  0  0  0  0  0  0
    1.1340   16.1710   21.7130 H   0  0  0  0  0  0  0  0  0  0  0  0
   -1.0580   15.3070   21.0070 H   0  0  0  0  0  0  0  0  0  0  0  0
   -1.5830   15.0920   18.6290 H   0  0  0  0  0  0  0  0  0  0  0  0
    0.0390   15.7840   16.9380 H   0  0  0  0  0  0  0  0  0  0  0  0
    3.0890   16.9430   21.1000 H   0  0  0  0  0  0  0  0  0  0  0  0
    4.6690   18.5110   17.1550 H   0  0  0  0  0  0  0  0  0  0  0  0
    3.9910   18.5170   15.5620 H   0  0  0  0  0  0  0  0  0  0  0  0
    2.9580   20.6500   14.6180 H   0  0  0  0  0  0  0  0  0  0  0  0
    3.6610   22.1030   15.3300 H   0  0  0  0  0  0  0  0  0  0  0  0
    4.7030   20.7780   14.7830 H   0  0  0  0  0  0  0  0  0  0  0  0
    4.4160   22.0540   17.8230 H   0  0  0  0  0  0  0  0  0  0  0  0
    4.4630   20.5060   18.6570 H   0  0  0  0  0  0  0  0  0  0  0  0
    6.3510   19.8430   17.0290 H   0  0  0  0  0  0  0  0  0  0  0  0
    5.8460   21.8820   15.6990 H   0  0  0  0  0  0  0  0  0  0  0  0
    8.8250   21.1310   17.6560 H   0  0  0  0  0  0  0  0  0  0  0  0
    8.8250   20.9360   19.4130 H   0  0  0  0  0  0  0  0  0  0  0  0
    8.3710   19.5690   18.3750 H   0  0  0  0  0  0  0  0  0  0  0  0
  1  2  1  0  0  0  0
  1  5  2  0  0  0  0
  1 23  1  0  0  0  0
  2  3  2  0  0  0  0
  2 24  1  0  0  0  0
  3  4  1  0  0  0  0
  3 25  1  0  0  0  0
  4  7  2  0  0  0  0
  4 26  1  0  0  0  0
  5  6  1  0  0  0  0
  5  7  1  0  0  0  0
  6 27  1  0  0  0  0
  7  8  1  0  0  0  0
  8  9  1  0  0  0  0
  8 14  2  0  0  0  0
  9 10  1  0  0  0  0
  9 11  1  0  0  0  0
 10 12  2  0  0  0  0
 10 13  1  0  0  0  0
 11 16  1  0  0  0  0
 11 28  1  0  0  0  0
 11 29  1  0  0  0  0
 13 15  2  0  0  0  0
 13 16  1  0  0  0  0
 16 17  1  0  0  0  0
 16 18  1  0  0  0  0
 17 30  1  0  0  0  0
 17 31  1  0  0  0  0
 17 32  1  0  0  0  0
 18 19  1  0  0  0  0
 18 33  1  0  0  0  0
 18 34  1  0  0  0  0
 19 20  1  0  0  0  0
 19 21  1  0  0  0  0
 19 35  1  0  0  0  0
 20 22  1  0  0  0  0
 21 36  1  0  0  0  0
 22 37  1  0  0  0  0
 22 38  1  0  0  0  0
 22 39  1  0  0  0  0
M  END
> <rseq>
1

> <mseq>
89

> <S>
-5.638772

> <rmsd_refine>
1.21565

> <E_conf>
5.234941

> <E_score1>
-8.355538

> <E_refine>
-29.24434

> <E_score2>
-5.638772

>  <$File>
outputs/pdb_4j58_cleaned.pdb_2024_06_17__22_47_40_V2_BS398_MIN1_/SDF/sdf_db.sdf

> <Rec_index>
1

>  <PLIF_raw>
[[14,1,5,7,4,3,2],[954,1519,1519,1519,1519,1519,1519],[62,102,102,102,102,102,102],[2,10,10,10,10,10,10],[0.8,0.9,0.9,0.9,0.9,0.9,0.9]]

> <FP:PLIF>
20 22

>  <PLIF_ligidx>
[14,[1,5,7,4,3,2]]

$$$$
89
  MOE2022           3D

 36 39  0  0  1  0  0  0  0  0999 V2000
    6.8120   21.1790   19.3640 C   0  0  0  0  0  0  0  0  0  0  0  0
    6.2190   22.3660   18.9320 C   0  0  0  0  0  0  0  0  0  0  0  0
    6.1310   19.9770   19.2390 C   0  0  0  0  0  0  0  0  0  0  0  0
    4.9510   22.3450   18.3700 C   0  0  0  0  0  0  0  0  0  0  0  0
    4.2600   21.1310   18.2250 C   0  0  0  0  0  0  0  0  0  0  0  0
    4.8470   19.9450   18.6830 C   0  0  0  0  0  0  0  0  0  0  0  0
    4.1300   18.7370   18.5940 N   0  0  0  0  0  0  0  0  0  0  0  0
    2.9600   21.0520   17.5970 C   0  0  0  0  0  0  0  0  0  0  0  0
    2.4930   19.7630   17.2830 N   0  0  0  0  0  0  0  0  0  0  0  0
    2.2650   22.0240   17.3060 O   0  0  0  0  0  0  0  0  0  0  0  0
    3.0180   18.6420   17.9630 C   0  0  0  0  0  0  0  0  0  0  0  0
    2.2440   17.3240   17.8980 C   0  0  1  0  0  0  0  0  0  0  0  0
    1.3700   17.0260   19.1460 C   0  0  2  0  0  0  0  0  0  0  0  0
    2.0690   16.3260   20.3330 C   0  0  0  0  0  0  0  0  0  0  0  0
    1.6400   19.5980   16.1730 C   0  0  0  0  0  0  0  0  0  0  0  0
    1.0940   18.3990   15.8410 C   0  0  0  0  0  0  0  0  0  0  0  0
    0.1920   16.2440   18.6990 N   0  3  0  0  0  0  0  0  0  0  0  0
    0.2900   18.2400   14.6540 C   0  0  0  0  0  0  0  0  0  0  0  0
    3.2500   16.6340   20.5820 O   0  5  0  0  0  0  0  0  0  0  0  0
    1.2700   17.1740   16.7110 C   0  0  2  0  0  0  0  0  0  0  0  0
   -0.0580   16.8360   17.3840 C   0  0  0  0  0  0  0  0  0  0  0  0
    1.3940   15.4890   20.9820 O   0  0  0  0  0  0  0  0  0  0  0  0
    0.0710   19.1480   13.8810 O   0  0  0  0  0  0  0  0  0  0  0  0
    7.7850   21.1970   19.7840 H   0  0  0  0  0  0  0  0  0  0  0  0
    6.7430   23.2820   19.0300 H   0  0  0  0  0  0  0  0  0  0  0  0
    6.5890   19.0790   19.5590 H   0  0  0  0  0  0  0  0  0  0  0  0
    4.5070   23.2480   18.0370 H   0  0  0  0  0  0  0  0  0  0  0  0
    2.9640   16.5200   17.8210 H   0  0  0  0  0  0  0  0  0  0  0  0
    1.0010   17.9860   19.5080 H   0  0  0  0  0  0  0  0  0  0  0  0
    1.4950   20.4840   15.6060 H   0  0  0  0  0  0  0  0  0  0  0  0
    0.4840   15.2800   18.6020 H   0  0  0  0  0  0  0  0  0  0  0  0
   -0.5910   16.3210   19.3330 H   0  0  0  0  0  0  0  0  0  0  0  0
   -0.1320   17.2920   14.4350 H   0  0  0  0  0  0  0  0  0  0  0  0
    1.5830   16.3340   16.1040 H   0  0  0  0  0  0  0  0  0  0  0  0
   -0.6970   16.1890   16.7810 H   0  0  0  0  0  0  0  0  0  0  0  0
   -0.5940   17.7710   17.5560 H   0  0  0  0  0  0  0  0  0  0  0  0
  1  2  2  0  0  0  0
  1  3  1  0  0  0  0
  1 24  1  0  0  0  0
  2  4  1  0  0  0  0
  2 25  1  0  0  0  0
  3  6  2  0  0  0  0
  3 26  1  0  0  0  0
  4  5  2  0  0  0  0
  4 27  1  0  0  0  0
  5  6  1  0  0  0  0
  5  8  1  0  0  0  0
  6  7  1  0  0  0  0
  7 11  2  0  0  0  0
  8  9  1  0  0  0  0
  8 10  2  0  0  0  0
  9 11  1  0  0  0  0
  9 15  1  0  0  0  0
 11 12  1  0  0  0  0
 12 13  1  0  0  0  0
 12 20  1  0  0  0  0
 12 28  1  0  0  0  0
 13 14  1  0  0  0  0
 13 17  1  0  0  0  0
 13 29  1  0  0  0  0
 14 19  1  0  0  0  0
 14 22  2  0  0  0  0
 15 16  2  0  0  0  0
 15 30  1  0  0  0  0
 16 18  1  0  0  0  0
 16 20  1  0  0  0  0
 17 21  1  0  0  0  0
 17 31  1  0  0  0  0
 17 32  1  0  0  0  0
 18 23  2  0  0  0  0
 18 33  1  0  0  0  0
 20 21  1  0  0  0  0
 20 34  1  0  0  0  0
 21 35  1  0  0  0  0
 21 36  1  0  0  0  0
M  CHG  1  17   1
M  CHG  1  19  -1
M  END
> <rseq>
1

> <mseq>
90

> <S>
-5.373995

> <rmsd_refine>
1.532652

> <E_conf>
-38.11639

> <E_score1>
-7.449668

> <E_refine>
-27.44103

> <E_score2>
-5.373995

>  <$File>
outputs/pdb_4j58_cleaned.pdb_2024_06_17__22_47_40_V2_BS398_MIN1_/SDF/sdf_db.sdf

> <Rec_index>
1

>  <PLIF_raw>
[[17,22,22,22,22,1,1,1,1,1,1],[1071,1206,1212,1206,1212,1651,1655,1659,1657,1653,1650],[71,81,81,81,81,112,112,112,112,112,112],[3,2,2,7,7,10,10,10,10,10,10],[0.9,0.5,1.8,1.809906409,2.541932593,0.5,0.5,0.5,0.5,0.5,0.5]]

> <FP:PLIF>
7 17 18 24 15

>  <PLIF_ligidx>
[17,[22,22],22,[22,22],[1,1,1,1,1,1]]

$$$$
90
  MOE2022           3D

 39 41  0  0  0  0  0  0  0  0999 V2000
    2.9070   17.1110   19.7460 C   0  0  0  0  0  0  0  0  0  0  0  0
    2.3190   17.1260   18.4810 C   0  0  0  0  0  0  0  0  0  0  0  0
    1.1770   16.3750   18.2050 C   0  0  0  0  0  0  0  0  0  0  0  0
    0.6170   15.6080   19.2270 C   0  0  0  0  0  0  0  0  0  0  0  0
   -0.5250   14.8520   18.9660 N   0  0  0  0  0  0  0  0  0  0  0  0
    2.3410   16.3320   20.7510 C   0  0  0  0  0  0  0  0  0  0  0  0
    1.1920   15.5910   20.5020 C   0  0  0  0  0  0  0  0  0  0  0  0
    2.8890   17.9500   17.4860 N   0  0  0  0  0  0  0  0  0  0  0  0
    3.1570   17.5470   16.1910 C   0  0  0  0  0  0  0  0  0  0  0  0
    3.4290   18.5990   15.2080 C   0  0  0  0  0  0  0  0  0  0  0  0
    3.1710   16.3450   15.9360 O   0  0  0  0  0  0  0  0  0  0  0  0
    4.0580   19.7050   15.6270 N   0  0  0  0  0  0  0  0  0  0  0  0
    3.0540   18.5030   13.8600 C   0  0  0  0  0  0  0  0  0  0  0  0
    3.3500   19.5660   13.0210 C   0  0  0  0  0  0  0  0  0  0  0  0
    4.3360   20.6980   14.7730 C   0  0  0  0  0  0  0  0  0  0  0  0
    3.9810   20.6340   13.4800 N   0  0  0  0  0  0  0  0  0  0  0  0
    5.0850   21.8640   15.2440 C   0  0  0  0  0  0  0  0  0  0  0  0
    2.3320   17.2960   13.2880 C   0  0  0  0  0  0  0  0  0  0  0  0
    6.0240   21.7460   16.2820 C   0  0  0  0  0  0  0  0  0  0  0  0
    4.9000   23.1230   14.6510 C   0  0  0  0  0  0  0  0  0  0  0  0
    6.7610   22.8480   16.7020 C   0  0  0  0  0  0  0  0  0  0  0  0
    6.5700   24.0860   16.0970 C   0  0  0  0  0  0  0  0  0  0  0  0
    5.6380   24.2220   15.0740 C   0  0  0  0  0  0  0  0  0  0  0  0
    3.7710   17.6900   19.9370 H   0  0  0  0  0  0  0  0  0  0  0  0
    0.7360   16.3910   17.2430 H   0  0  0  0  0  0  0  0  0  0  0  0
   -0.6520   14.0280   19.5690 H   0  0  0  0  0  0  0  0  0  0  0  0
   -0.6730   14.6570   17.9640 H   0  0  0  0  0  0  0  0  0  0  0  0
    2.7840   16.3040   21.7120 H   0  0  0  0  0  0  0  0  0  0  0  0
    0.7560   15.0230   21.2750 H   0  0  0  0  0  0  0  0  0  0  0  0
    3.0710   18.9390   17.7210 H   0  0  0  0  0  0  0  0  0  0  0  0
    3.0800   19.5440   11.9960 H   0  0  0  0  0  0  0  0  0  0  0  0
    1.9740   17.4900   12.2760 H   0  0  0  0  0  0  0  0  0  0  0  0
    3.0000   16.4350   13.2460 H   0  0  0  0  0  0  0  0  0  0  0  0
    1.4670   17.0360   13.8990 H   0  0  0  0  0  0  0  0  0  0  0  0
    6.1850   20.8090   16.7500 H   0  0  0  0  0  0  0  0  0  0  0  0
    4.1930   23.2440   13.8710 H   0  0  0  0  0  0  0  0  0  0  0  0
    7.4710   22.7450   17.4820 H   0  0  0  0  0  0  0  0  0  0  0  0
    7.1310   24.9250   16.4130 H   0  0  0  0  0  0  0  0  0  0  0  0
    5.4900   25.1660   14.6160 H   0  0  0  0  0  0  0  0  0  0  0  0
  1  2  1  0  0  0  0
  1  6  2  0  0  0  0
  1 24  1  0  0  0  0
  2  3  2  0  0  0  0
  2  8  1  0  0  0  0
  3  4  1  0  0  0  0
  3 25  1  0  0  0  0
  4  5  1  0  0  0  0
  4  7  2  0  0  0  0
  5 26  1  0  0  0  0
  5 27  1  0  0  0  0
  6  7  1  0  0  0  0
  6 28  1  0  0  0  0
  7 29  1  0  0  0  0
  8  9  1  0  0  0  0
  8 30  1  0  0  0  0
  9 10  1  0  0  0  0
  9 11  2  0  0  0  0
 10 12  1  0  0  0  0
 10 13  2  0  0  0  0
 12 15  2  0  0  0  0
 13 14  1  0  0  0  0
 13 18  1  0  0  0  0
 14 16  2  0  0  0  0
 14 31  1  0  0  0  0
 15 16  1  0  0  0  0
 15 17  1  0  0  0  0
 17 19  2  0  0  0  0
 17 20  1  0  0  0  0
 18 32  1  0  0  0  0
 18 33  1  0  0  0  0
 18 34  1  0  0  0  0
 19 21  1  0  0  0  0
 19 35  1  0  0  0  0
 20 23  2  0  0  0  0
 20 36  1  0  0  0  0
 21 22  2  0  0  0  0
 21 37  1  0  0  0  0
 22 23  1  0  0  0  0
 22 38  1  0  0  0  0
 23 39  1  0  0  0  0
M  END
> <rseq>
1

> <mseq>
91

> <S>
-5.149154

> <rmsd_refine>
1.760655

> <E_conf>
-16.67928

> <E_score1>
-8.586729

> <E_refine>
-19.94118

> <E_score2>
-5.149154

>  <$File>
outputs/pdb_4j58_cleaned.pdb_2024_06_17__22_47_40_V2_BS398_MIN1_/SDF/sdf_db.sdf

> <Rec_index>
1

>  <PLIF_raw>
[[],[],[],[],[]]

>  <PLIF_ligidx>
[]

$$$$
91
  MOE2022           3D

 37 38  0  0  1  0  0  0  0  0999 V2000
    7.4060   21.2410   19.3070 C   0  0  0  0  0  0  0  0  0  0  0  0
    6.6420   20.0790   19.2770 C   0  0  0  0  0  0  0  0  0  0  0  0
    5.3110   20.1430   18.8670 C   0  0  0  0  0  0  0  0  0  0  0  0
    4.6000   18.9610   18.8310 O   0  0  0  0  0  0  0  0  0  0  0  0
    3.3550   18.7120   18.1050 C   0  0  1  0  0  0  0  0  0  0  0  0
    4.7340   21.3620   18.5020 C   0  0  0  0  0  0  0  0  0  0  0  0
    6.8400   22.4580   18.9370 C   0  0  0  0  0  0  0  0  0  0  0  0
    5.5060   22.5180   18.5390 C   0  0  0  0  0  0  0  0  0  0  0  0
    3.5420   18.6790   16.5980 C   0  0  0  0  0  0  0  0  0  0  0  0
    4.5570   19.0770   16.0620 O   0  0  0  0  0  0  0  0  0  0  0  0
    2.6810   17.4400   18.6260 C   0  0  0  0  0  0  0  0  0  0  0  0
    1.3370   17.2500   17.9270 C   0  0  1  0  0  0  0  0  0  0  0  0
    2.5200   18.1370   15.8120 N   0  0  0  0  0  0  0  0  0  0  0  0
    2.5350   18.2640   14.4140 C   0  0  0  0  0  0  0  0  0  0  0  0
    2.8220   19.5640   13.7860 C   0  0  0  0  0  0  0  0  0  0  0  0
    1.5390   17.1930   16.3990 C   0  0  0  0  0  0  0  0  0  0  0  0
    2.2810   17.2620   13.7500 O   0  0  0  0  0  0  0  0  0  0  0  0
    2.8070   20.6390   14.3810 O   0  0  0  0  0  0  0  0  0  0  0  0
    3.1040   19.5890   12.4510 N   0  0  0  0  0  0  0  0  0  0  0  0
    0.6470   16.0400   18.3560 N   0  0  0  0  0  0  0  0  0  0  0  0
    0.3260   15.7650   19.6690 C   0  0  0  0  0  0  0  0  0  0  0  0
    0.3480   16.6750   20.5370 O   0  5  0  0  0  0  0  0  0  0  0  0
    0.0200   14.5740   19.8950 O   0  0  0  0  0  0  0  0  0  0  0  0
    8.4220   21.2000   19.6040 H   0  0  0  0  0  0  0  0  0  0  0  0
    7.0730   19.1520   19.5510 H   0  0  0  0  0  0  0  0  0  0  0  0
    2.6770   19.5260   18.3100 H   0  0  0  0  0  0  0  0  0  0  0  0
    3.7230   21.4160   18.1960 H   0  0  0  0  0  0  0  0  0  0  0  0
    7.4270   23.3380   18.9540 H   0  0  0  0  0  0  0  0  0  0  0  0
    5.0800   23.4470   18.2590 H   0  0  0  0  0  0  0  0  0  0  0  0
    3.3030   16.5700   18.4350 H   0  0  0  0  0  0  0  0  0  0  0  0
    2.5460   17.5380   19.7020 H   0  0  0  0  0  0  0  0  0  0  0  0
    0.6980   18.1050   18.1530 H   0  0  0  0  0  0  0  0  0  0  0  0
    1.8480   16.1880   16.1400 H   0  0  0  0  0  0  0  0  0  0  0  0
    0.5770   17.3190   15.9200 H   0  0  0  0  0  0  0  0  0  0  0  0
    3.0670   18.7210   11.8950 H   0  0  0  0  0  0  0  0  0  0  0  0
    3.2380   20.4910   11.9680 H   0  0  0  0  0  0  0  0  0  0  0  0
    0.8780   15.1890   17.8220 H   0  0  0  0  0  0  0  0  0  0  0  0
  1  2  1  0  0  0  0
  1  7  2  0  0  0  0
  1 24  1  0  0  0  0
  2  3  2  0  0  0  0
  2 25  1  0  0  0  0
  3  4  1  0  0  0  0
  3  6  1  0  0  0  0
  4  5  1  0  0  0  0
  5  9  1  0  0  0  0
  5 11  1  0  0  0  0
  5 26  1  0  0  0  0
  6  8  2  0  0  0  0
  6 27  1  0  0  0  0
  7  8  1  0  0  0  0
  7 28  1  0  0  0  0
  8 29  1  0  0  0  0
  9 10  2  0  0  0  0
  9 13  1  0  0  0  0
 11 12  1  0  0  0  0
 11 30  1  0  0  0  0
 11 31  1  0  0  0  0
 12 16  1  0  0  0  0
 12 20  1  0  0  0  0
 12 32  1  0  0  0  0
 13 14  1  0  0  0  0
 13 16  1  0  0  0  0
 14 15  1  0  0  0  0
 14 17  2  0  0  0  0
 15 18  2  0  0  0  0
 15 19  1  0  0  0  0
 16 33  1  0  0  0  0
 16 34  1  0  0  0  0
 19 35  1  0  0  0  0
 19 36  1  0  0  0  0
 20 21  1  0  0  0  0
 20 37  1  0  0  0  0
 21 22  1  0  0  0  0
 21 23  2  0  0  0  0
M  CHG  1  22  -1
M  END
> <rseq>
1

> <mseq>
92

> <S>
-5.316246

> <rmsd_refine>
1.161166

> <E_conf>
-158.3706

> <E_score1>
-9.047888

> <E_refine>
-31.32465

> <E_score2>
-5.316246

>  <$File>
outputs/pdb_4j58_cleaned.pdb_2024_06_17__22_47_40_V2_BS398_MIN1_/SDF/sdf_db.sdf

> <Rec_index>
1

>  <PLIF_raw>
[[20,23,23,23],[1071,1212,1206,1212],[71,81,81,81],[3,2,7,7],[1.5,9.3,1.093286655,6.042587905]]

> <FP:PLIF>
7 14 17 18 24 25

>  <PLIF_ligidx>
[20,20,23,23,[23,23],23]

$$$$
92
  MOE2022           3D

 35 36  0  0  0  0  0  0  0  0999 V2000
    2.2110   15.5750   21.6000 O   0  0  0  0  0  0  0  0  0  0  0  0
    1.1620   16.0130   21.0430 C   0  0  0  0  0  0  0  0  0  0  0  0
    0.0920   16.1430   21.6960 O   0  5  0  0  0  0  0  0  0  0  0  0
    1.1840   16.3630   19.6150 C   0  0  0  0  0  0  0  0  0  0  0  0
    0.1730   16.6320   18.9670 O   0  0  0  0  0  0  0  0  0  0  0  0
    2.3990   16.3790   18.9730 N   0  0  0  0  0  0  0  0  0  0  0  0
    2.5740   16.6390   17.5450 C   0  0  0  0  0  0  0  0  0  0  0  0
    3.2960   17.9370   17.1820 C   0  0  0  0  0  0  0  0  0  0  0  0
    3.3310   18.3750   15.8220 C   0  0  0  0  0  0  0  0  0  0  0  0
    3.9420   19.5950   15.5340 C   0  0  0  0  0  0  0  0  0  0  0  0
    3.9350   18.6780   18.1550 C   0  0  0  0  0  0  0  0  0  0  0  0
    3.8990   20.0890   14.2640 O   0  0  0  0  0  0  0  0  0  0  0  0
    4.6440   20.3480   16.5160 C   0  0  0  0  0  0  0  0  0  0  0  0
    4.6630   19.8550   17.8430 C   0  0  0  0  0  0  0  0  0  0  0  0
    5.4280   20.5300   18.8260 C   0  0  0  0  0  0  0  0  0  0  0  0
    5.3440   21.5530   16.2170 C   0  0  0  0  0  0  0  0  0  0  0  0
    6.1250   21.6680   18.4890 C   0  0  0  0  0  0  0  0  0  0  0  0
    2.7710   17.5620   14.7470 C   0  0  0  0  0  0  0  0  0  0  0  0
    6.0750   22.2000   17.1850 C   0  0  0  0  0  0  0  0  0  0  0  0
    6.8930   22.3020   19.4190 O   0  0  0  0  0  0  0  0  0  0  0  0
    3.0990   16.2450   14.7110 O   0  0  0  0  0  0  0  0  0  0  0  0
    2.5800   15.3250   13.7180 C   0  0  0  0  0  0  0  0  0  0  0  0
    2.0670   18.0000   13.8470 O   0  0  0  0  0  0  0  0  0  0  0  0
    3.2310   16.1030   19.5190 H   0  0  0  0  0  0  0  0  0  0  0  0
    3.1280   15.8070   17.1360 H   0  0  0  0  0  0  0  0  0  0  0  0
    1.6190   16.6090   17.0390 H   0  0  0  0  0  0  0  0  0  0  0  0
    3.9180   18.3680   19.1680 H   0  0  0  0  0  0  0  0  0  0  0  0
    3.3030   19.5480   13.7050 H   0  0  0  0  0  0  0  0  0  0  0  0
    5.4640   20.1490   19.8140 H   0  0  0  0  0  0  0  0  0  0  0  0
    5.3100   21.9520   15.2370 H   0  0  0  0  0  0  0  0  0  0  0  0
    6.6040   23.0900   16.9590 H   0  0  0  0  0  0  0  0  0  0  0  0
    6.9770   21.7570   20.2250 H   0  0  0  0  0  0  0  0  0  0  0  0
    2.9850   14.3270   13.8830 H   0  0  0  0  0  0  0  0  0  0  0  0
    1.4930   15.2710   13.7830 H   0  0  0  0  0  0  0  0  0  0  0  0
    2.8590   15.6490   12.7150 H   0  0  0  0  0  0  0  0  0  0  0  0
  1  2  2  0  0  0  0
  2  3  1  0  0  0  0
  2  4  1  0  0  0  0
  4  5  2  0  0  0  0
  4  6  1  0  0  0  0
  6  7  1  0  0  0  0
  6 24  1  0  0  0  0
  7  8  1  0  0  0  0
  7 25  1  0  0  0  0
  7 26  1  0  0  0  0
  8  9  2  0  0  0  0
  8 11  1  0  0  0  0
  9 10  1  0  0  0  0
  9 18  1  0  0  0  0
 10 12  1  0  0  0  0
 10 13  2  0  0  0  0
 11 14  2  0  0  0  0
 11 27  1  0  0  0  0
 12 28  1  0  0  0  0
 13 14  1  0  0  0  0
 13 16  1  0  0  0  0
 14 15  1  0  0  0  0
 15 17  2  0  0  0  0
 15 29  1  0  0  0  0
 16 19  2  0  0  0  0
 16 30  1  0  0  0  0
 17 19  1  0  0  0  0
 17 20  1  0  0  0  0
 18 21  1  0  0  0  0
 18 23  2  0  0  0  0
 19 31  1  0  0  0  0
 20 32  1  0  0  0  0
 21 22  1  0  0  0  0
 22 33  1  0  0  0  0
 22 34  1  0  0  0  0
 22 35  1  0  0  0  0
M  CHG  1   3  -1
M  END
> <rseq>
1

> <mseq>
93

> <S>
-5.560507

> <rmsd_refine>
1.414136

> <E_conf>
40.72741

> <E_score1>
-8.183501

> <E_refine>
-32.00027

> <E_score2>
-5.560507

>  <$File>
outputs/pdb_4j58_cleaned.pdb_2024_06_17__22_47_40_V2_BS398_MIN1_/SDF/sdf_db.sdf

> <Rec_index>
1

>  <PLIF_raw>
[[6,3,1,1,3,3],[1617,1206,1206,1212,1206,1212],[110,81,81,81,81,81],[1,2,7,7,7,7],[0.7,6.2,1.241913618,1.106339027,5.303885509,1.648078692]]

> <FP:PLIF>
17 18 24 25 26

>  <PLIF_ligidx>
[3,3,[1,1,3,3],3,6]

$$$$
93
  MOE2022           3D

 41 41  0  0  1  0  0  0  0  0999 V2000
    3.6780   17.6550   19.4790 O   0  0  0  0  0  0  0  0  0  0  0  0
    3.0240   18.2000   18.5920 C   0  0  0  0  0  0  0  0  0  0  0  0
    1.7410   17.8690   18.3820 N   0  0  0  0  0  0  0  0  0  0  0  0
    3.6230   19.1890   17.5910 C   0  0  2  0  0  0  0  0  0  0  0  0
    1.0300   16.8540   19.1430 C   0  0  0  0  0  0  0  0  0  0  0  0
    3.7500   18.5510   16.2700 N   0  0  0  0  0  0  0  0  0  0  0  0
    2.7300   18.4920   15.3520 C   0  0  0  0  0  0  0  0  0  0  0  0
    1.7130   19.1560   15.5250 O   0  0  0  0  0  0  0  0  0  0  0  0
    2.9160   17.6270   14.1990 C   0  0  0  0  0  0  0  0  0  0  0  0
    3.0780   18.1770   12.9240 C   0  0  0  0  0  0  0  0  0  0  0  0
    3.3010   17.3560   11.8280 C   0  0  0  0  0  0  0  0  0  0  0  0
    2.9300   16.2350   14.3480 C   0  0  0  0  0  0  0  0  0  0  0  0
    3.3670   15.9620   11.9760 C   0  0  0  0  0  0  0  0  0  0  0  0
    3.1410   15.4120   13.2500 C   0  0  0  0  0  0  0  0  0  0  0  0
    3.7050   15.1270   10.8210 C   0  0  0  0  0  0  0  0  0  0  0  0
    3.6720   15.5480    9.6670 O   0  0  0  0  0  0  0  0  0  0  0  0
    4.1180   13.8320   11.0360 N   0  0  0  0  0  0  0  0  0  0  0  0
    4.6690   12.9650    9.9980 C   0  0  0  0  0  0  0  0  0  0  0  0
    6.1950   13.0220    9.9330 C   0  0  0  0  0  0  0  0  0  0  0  0
    4.9750   19.8190   17.9930 C   0  0  0  0  0  0  0  0  0  0  0  0
    4.9420   20.7060   19.2300 C   0  0  0  0  0  0  0  0  0  0  0  0
    4.5000   21.8670   19.0940 O   0  5  0  0  0  0  0  0  0  0  0  0
    5.4170   20.2320   20.2860 O   0  0  0  0  0  0  0  0  0  0  0  0
    1.2450   18.3260   17.6280 H   0  0  0  0  0  0  0  0  0  0  0  0
    2.9200   20.0060   17.4940 H   0  0  0  0  0  0  0  0  0  0  0  0
    0.0240   16.7360   18.7400 H   0  0  0  0  0  0  0  0  0  0  0  0
    1.5590   15.9030   19.0700 H   0  0  0  0  0  0  0  0  0  0  0  0
    0.9690   17.1540   20.1890 H   0  0  0  0  0  0  0  0  0  0  0  0
    4.5910   17.9750   16.1140 H   0  0  0  0  0  0  0  0  0  0  0  0
    3.0410   19.2280   12.7960 H   0  0  0  0  0  0  0  0  0  0  0  0
    3.4360   17.7940   10.8720 H   0  0  0  0  0  0  0  0  0  0  0  0
    2.7780   15.8070   15.3060 H   0  0  0  0  0  0  0  0  0  0  0  0
    3.1420   14.3620   13.3880 H   0  0  0  0  0  0  0  0  0  0  0  0
    4.2000   13.4950   12.0090 H   0  0  0  0  0  0  0  0  0  0  0  0
    4.3700   11.9370   10.2030 H   0  0  0  0  0  0  0  0  0  0  0  0
    4.2660   13.2370    9.0210 H   0  0  0  0  0  0  0  0  0  0  0  0
    6.5190   14.0450    9.7360 H   0  0  0  0  0  0  0  0  0  0  0  0
    6.6150   12.6830   10.8790 H   0  0  0  0  0  0  0  0  0  0  0  0
    6.5490   12.3730    9.1320 H   0  0  0  0  0  0  0  0  0  0  0  0
    5.7050   19.0350   18.1620 H   0  0  0  0  0  0  0  0  0  0  0  0
    5.3300   20.4270   17.1610 H   0  0  0  0  0  0  0  0  0  0  0  0
  1  2  2  0  0  0  0
  2  3  1  0  0  0  0
  2  4  1  0  0  0  0
  3  5  1  0  0  0  0
  3 24  1  0  0  0  0
  4  6  1  0  0  0  0
  4 20  1  0  0  0  0
  4 25  1  0  0  0  0
  5 26  1  0  0  0  0
  5 27  1  0  0  0  0
  5 28  1  0  0  0  0
  6  7  1  0  0  0  0
  6 29  1  0  0  0  0
  7  8  2  0  0  0  0
  7  9  1  0  0  0  0
  9 10  1  0  0  0  0
  9 12  2  0  0  0  0
 10 11  2  0  0  0  0
 10 30  1  0  0  0  0
 11 13  1  0  0  0  0
 11 31  1  0  0  0  0
 12 14  1  0  0  0  0
 12 32  1  0  0  0  0
 13 14  2  0  0  0  0
 13 15  1  0  0  0  0
 14 33  1  0  0  0  0
 15 16  2  0  0  0  0
 15 17  1  0  0  0  0
 17 18  1  0  0  0  0
 17 34  1  0  0  0  0
 18 19  1  0  0  0  0
 18 35  1  0  0  0  0
 18 36  1  0  0  0  0
 19 37  1  0  0  0  0
 19 38  1  0  0  0  0
 19 39  1  0  0  0  0
 20 21  1  0  0  0  0
 20 40  1  0  0  0  0
 20 41  1  0  0  0  0
 21 22  1  0  0  0  0
 21 23  2  0  0  0  0
M  CHG  1  22  -1
M  END
> <rseq>
1

> <mseq>
94

> <S>
-5.494825

> <rmsd_refine>
1.442896

> <E_conf>
-148.2309

> <E_score1>
-8.513124

> <E_refine>
-31.70823

> <E_score2>
-5.494825

>  <$File>
outputs/pdb_4j58_cleaned.pdb_2024_06_17__22_47_40_V2_BS398_MIN1_/SDF/sdf_db.sdf

> <Rec_index>
1

>  <PLIF_raw>
[[6,17,23,23,22,23],[953,1056,1499,1870,1872,1866],[62,70,101,125,125,125],[1,3,4,2,7,7],[0.8,2.8,2.3,0.8,1.143223708,0.8751425415]]

> <FP:PLIF>
28 3 4 11 12 29 13

>  <PLIF_ligidx>
[6,17,17,23,23,23,[22,23]]

$$$$
94
  MOE2022           3D

 41 42  0  0  0  0  0  0  0  0999 V2000
    6.0630   14.7250    9.8680 C   0  0  0  0  0  0  0  0  0  0  0  0
    5.8020   15.6500    8.8610 C   0  0  0  0  0  0  0  0  0  0  0  0
    4.5210   16.1620    8.7030 C   0  0  0  0  0  0  0  0  0  0  0  0
    3.4990   15.7540    9.5530 C   0  0  0  0  0  0  0  0  0  0  0  0
    5.0400   14.3170   10.7190 C   0  0  0  0  0  0  0  0  0  0  0  0
    3.7520   14.8310   10.5680 C   0  0  0  0  0  0  0  0  0  0  0  0
    2.6350   14.4390   11.5150 C   0  0  0  0  0  0  0  0  0  0  0  0
    2.3280   15.5580   12.4840 C   0  0  0  0  0  0  0  0  0  0  0  0
    1.7440   16.5690   12.1410 O   0  0  0  0  0  0  0  0  0  0  0  0
    2.7820   15.4150   13.7790 N   0  0  0  0  0  0  0  0  0  0  0  0
    2.9590   16.4740   14.6740 C   0  0  0  0  0  0  0  0  0  0  0  0
    3.2750   17.7690   14.3330 C   0  0  0  0  0  0  0  0  0  0  0  0
    3.5150   18.7150   15.3530 C   0  0  0  0  0  0  0  0  0  0  0  0
    3.4160   18.3580   16.6720 C   0  0  0  0  0  0  0  0  0  0  0  0
    3.7330   19.3700   17.7620 C   0  0  0  0  0  0  0  0  0  0  0  0
    2.8340   16.1080   15.9950 N   0  0  0  0  0  0  0  0  0  0  0  0
    3.0120   17.0200   17.0200 C   0  0  0  0  0  0  0  0  0  0  0  0
    2.8200   16.5930   18.1680 O   0  0  0  0  0  0  0  0  0  0  0  0
    5.1710   19.8520   17.7550 C   0  0  0  0  0  0  0  0  0  0  0  0
    5.6640   20.4900   16.8220 O   0  0  0  0  0  0  0  0  0  0  0  0
    5.9180   19.5480   18.8370 O   0  0  0  0  0  0  0  0  0  0  0  0
    7.3230   19.9060   18.9610 C   0  0  0  0  0  0  0  0  0  0  0  0
    7.5320   21.3640   19.3730 C   0  0  0  0  0  0  0  0  0  0  0  0
    7.0380   14.3310    9.9890 H   0  0  0  0  0  0  0  0  0  0  0  0
    6.5750   15.9670    8.2110 H   0  0  0  0  0  0  0  0  0  0  0  0
    4.3220   16.8660    7.9360 H   0  0  0  0  0  0  0  0  0  0  0  0
    2.5260   16.1540    9.4300 H   0  0  0  0  0  0  0  0  0  0  0  0
    5.2480   13.6160   11.4850 H   0  0  0  0  0  0  0  0  0  0  0  0
    1.7450   14.2050   10.9470 H   0  0  0  0  0  0  0  0  0  0  0  0
    2.8860   13.5320   12.0460 H   0  0  0  0  0  0  0  0  0  0  0  0
    3.0550   14.4690   14.0890 H   0  0  0  0  0  0  0  0  0  0  0  0
    3.3730   18.0630   13.3210 H   0  0  0  0  0  0  0  0  0  0  0  0
    3.7860   19.7040   15.0840 H   0  0  0  0  0  0  0  0  0  0  0  0
    3.0750   20.2200   17.6480 H   0  0  0  0  0  0  0  0  0  0  0  0
    3.5110   18.9480   18.7300 H   0  0  0  0  0  0  0  0  0  0  0  0
    2.5590   15.1430   16.2420 H   0  0  0  0  0  0  0  0  0  0  0  0
    7.7740   19.2640   19.7170 H   0  0  0  0  0  0  0  0  0  0  0  0
    7.8290   19.7210   18.0120 H   0  0  0  0  0  0  0  0  0  0  0  0
    8.6010   21.5720   19.4330 H   0  0  0  0  0  0  0  0  0  0  0  0
    7.0830   22.0290   18.6350 H   0  0  0  0  0  0  0  0  0  0  0  0
    7.0760   21.5370   20.3460 H   0  0  0  0  0  0  0  0  0  0  0  0
  1  2  1  0  0  0  0
  1  5  2  0  0  0  0
  1 24  1  0  0  0  0
  2  3  2  0  0  0  0
  2 25  1  0  0  0  0
  3  4  1  0  0  0  0
  3 26  1  0  0  0  0
  4  6  2  0  0  0  0
  4 27  1  0  0  0  0
  5  6  1  0  0  0  0
  5 28  1  0  0  0  0
  6  7  1  0  0  0  0
  7  8  1  0  0  0  0
  7 29  1  0  0  0  0
  7 30  1  0  0  0  0
  8  9  2  0  0  0  0
  8 10  1  0  0  0  0
 10 11  1  0  0  0  0
 10 31  1  0  0  0  0
 11 12  2  0  0  0  0
 11 16  1  0  0  0  0
 12 13  1  0  0  0  0
 12 32  1  0  0  0  0
 13 14  2  0  0  0  0
 13 33  1  0  0  0  0
 14 15  1  0  0  0  0
 14 17  1  0  0  0  0
 15 19  1  0  0  0  0
 15 34  1  0  0  0  0
 15 35  1  0  0  0  0
 16 17  1  0  0  0  0
 16 36  1  0  0  0  0
 17 18  2  0  0  0  0
 19 20  2  0  0  0  0
 19 21  1  0  0  0  0
 21 22  1  0  0  0  0
 22 23  1  0  0  0  0
 22 37  1  0  0  0  0
 22 38  1  0  0  0  0
 23 39  1  0  0  0  0
 23 40  1  0  0  0  0
 23 41  1  0  0  0  0
M  END
> <rseq>
1

> <mseq>
95

> <S>
-6.001497

> <rmsd_refine>
0.8586807

> <E_conf>
-97.21136

> <E_score1>
-9.179939

> <E_refine>
-32.54343

> <E_score2>
-6.001497

>  <$File>
outputs/pdb_4j58_cleaned.pdb_2024_06_17__22_47_40_V2_BS398_MIN1_/SDF/sdf_db.sdf

> <Rec_index>
1

>  <PLIF_raw>
[[16,1,5,6,4,3,2,11,12,13,14,17,16],[1071,823,823,823,823,823,823,954,954,954,954,954,954],[71,54,54,54,54,54,54,62,62,62,62,62,62],[3,10,10,10,10,10,10,10,10,10,10,10,10],[2.3,1.2,1.2,1.2,1.2,1.2,1.2,1,1,1,1,1,1]]

> <FP:PLIF>
2 5 21 30 7 14

>  <PLIF_ligidx>
[[1,5,6,4,3,2],[1,5,6,4,3,2],[11,12,13,14,17,16],[11,12,13,14,17,16],16,16]

$$$$
95
  MOE2022           3D

 40 41  0  0  1  0  0  0  0  0999 V2000
    5.3340   14.6920    9.8330 C   0  0  0  0  0  0  0  0  0  0  0  0
    4.5230   14.4220   10.9270 C   0  0  0  0  0  0  0  0  0  0  0  0
    3.6610   15.4120   11.4250 C   0  0  0  0  0  0  0  0  0  0  0  0
    6.1930   13.7230    9.3810 O   0  0  0  0  0  0  0  0  0  0  0  0
    3.6250   16.6680   10.7910 C   0  0  0  0  0  0  0  0  0  0  0  0
    2.8350   15.1290   12.5960 C   0  0  0  0  0  0  0  0  0  0  0  0
    2.5490   16.1640   13.4540 N   0  0  0  0  0  0  0  0  0  0  0  0
    2.4080   14.0080   12.8570 O   0  0  0  0  0  0  0  0  0  0  0  0
    5.2780   15.9380    9.2060 C   0  0  0  0  0  0  0  0  0  0  0  0
    2.0060   15.9750   14.8140 C   0  0  1  0  0  0  0  0  0  0  0  0
    3.0300   16.3470   15.8520 C   0  0  0  0  0  0  0  0  0  0  0  0
    0.7330   16.7590   15.0230 C   0  0  0  0  0  0  0  0  0  0  0  0
    3.9170   15.5780   16.1300 O   0  0  0  0  0  0  0  0  0  0  0  0
   -0.3380   16.2920   14.6890 O   0  0  0  0  0  0  0  0  0  0  0  0
    0.8200   18.0440   15.6010 N   0  0  0  0  0  0  0  0  0  0  0  0
    6.0470   16.1900    8.1110 O   0  0  0  0  0  0  0  0  0  0  0  0
    2.0070   18.3960   16.2760 C   0  0  0  0  0  0  0  0  0  0  0  0
    3.0120   17.6150   16.4170 N   0  0  0  0  0  0  0  0  0  0  0  0
    4.4290   16.9300    9.6860 C   0  0  0  0  0  0  0  0  0  0  0  0
   -0.3690   19.0040   15.5690 C   0  0  0  0  0  0  0  0  0  0  0  0
   -0.8620   19.2100   14.1160 C   0  0  0  0  0  0  0  0  0  0  0  0
   -1.5210   18.4590   16.4440 C   0  0  0  0  0  0  0  0  0  0  0  0
   -0.0280   20.4160   16.1100 C   0  0  0  0  0  0  0  0  0  0  0  0
    4.5610   13.4700   11.3880 H   0  0  0  0  0  0  0  0  0  0  0  0
    6.1330   12.9280    9.9470 H   0  0  0  0  0  0  0  0  0  0  0  0
    2.9740   17.4240   11.1470 H   0  0  0  0  0  0  0  0  0  0  0  0
    2.9100   17.1020   13.2250 H   0  0  0  0  0  0  0  0  0  0  0  0
    1.7720   14.9280   14.9490 H   0  0  0  0  0  0  0  0  0  0  0  0
    6.5750   15.3970    7.8910 H   0  0  0  0  0  0  0  0  0  0  0  0
    2.0280   19.3620   16.7060 H   0  0  0  0  0  0  0  0  0  0  0  0
    4.3920   17.8760    9.2080 H   0  0  0  0  0  0  0  0  0  0  0  0
   -1.6440   19.9690   14.0760 H   0  0  0  0  0  0  0  0  0  0  0  0
   -1.2860   18.3060   13.6840 H   0  0  0  0  0  0  0  0  0  0  0  0
   -0.0420   19.5400   13.4770 H   0  0  0  0  0  0  0  0  0  0  0  0
   -1.1580   18.2240   17.4440 H   0  0  0  0  0  0  0  0  0  0  0  0
   -2.3210   19.1940   16.5370 H   0  0  0  0  0  0  0  0  0  0  0  0
   -1.9670   17.5570   16.0280 H   0  0  0  0  0  0  0  0  0  0  0  0
   -0.8850   21.0860   16.0160 H   0  0  0  0  0  0  0  0  0  0  0  0
    0.2300   20.3870   17.1690 H   0  0  0  0  0  0  0  0  0  0  0  0
    0.7960   20.8640   15.5540 H   0  0  0  0  0  0  0  0  0  0  0  0
  1  2  1  0  0  0  0
  1  4  1  0  0  0  0
  1  9  2  0  0  0  0
  2  3  2  0  0  0  0
  2 24  1  0  0  0  0
  3  5  1  0  0  0  0
  3  6  1  0  0  0  0
  4 25  1  0  0  0  0
  5 19  2  0  0  0  0
  5 26  1  0  0  0  0
  6  7  1  0  0  0  0
  6  8  2  0  0  0  0
  7 10  1  0  0  0  0
  7 27  1  0  0  0  0
  9 16  1  0  0  0  0
  9 19  1  0  0  0  0
 10 11  1  0  0  0  0
 10 12  1  0  0  0  0
 10 28  1  0  0  0  0
 11 13  2  0  0  0  0
 11 18  1  0  0  0  0
 12 14  2  0  0  0  0
 12 15  1  0  0  0  0
 15 17  1  0  0  0  0
 15 20  1  0  0  0  0
 16 29  1  0  0  0  0
 17 18  2  0  0  0  0
 17 30  1  0  0  0  0
 19 31  1  0  0  0  0
 20 21  1  0  0  0  0
 20 22  1  0  0  0  0
 20 23  1  0  0  0  0
 21 32  1  0  0  0  0
 21 33  1  0  0  0  0
 21 34  1  0  0  0  0
 22 35  1  0  0  0  0
 22 36  1  0  0  0  0
 22 37  1  0  0  0  0
 23 38  1  0  0  0  0
 23 39  1  0  0  0  0
 23 40  1  0  0  0  0
M  END
> <rseq>
1

> <mseq>
96

> <S>
-4.927037

> <rmsd_refine>
1.349257

> <E_conf>
-78.48891

> <E_score1>
-9.515361

> <E_refine>
-23.99445

> <E_score2>
-4.927037

>  <$File>
outputs/pdb_4j58_cleaned.pdb_2024_06_17__22_47_40_V2_BS398_MIN1_/SDF/sdf_db.sdf

> <Rec_index>
1

>  <PLIF_raw>
[[13,18],[954,954],[62,62],[2,2],[0.9,0.9]]

> <FP:PLIF>
20

>  <PLIF_ligidx>
[[13,18]]

$$$$
48
  MOE2022           3D

 28 29  0  0  0  0  0  0  0  0999 V2000
    7.6020   20.6680   18.9470 C   0  0  0  0  0  0  0  0  0  0  0  0
    8.6930   21.4520   18.5940 C   0  0  0  0  0  0  0  0  0  0  0  0
    6.4640   20.6230   18.1300 C   0  0  0  0  0  0  0  0  0  0  0  0
    5.3280   19.7900   18.5140 C   0  0  0  0  0  0  0  0  0  0  0  0
    4.5590   19.2800   17.4770 N   0  0  0  0  0  0  0  0  0  0  0  0
    5.0690   19.5380   19.6840 O   0  0  0  0  0  0  0  0  0  0  0  0
    8.6600   22.2030   17.4250 C   0  0  0  0  0  0  0  0  0  0  0  0
    3.4690   18.3680   17.4390 C   0  0  0  0  0  0  0  0  0  0  0  0
    6.4460   21.3870   16.9520 C   0  0  0  0  0  0  0  0  0  0  0  0
    2.9410   17.7830   18.6000 C   0  0  0  0  0  0  0  0  0  0  0  0
    2.9470   18.0380   16.1650 C   0  0  0  0  0  0  0  0  0  0  0  0
    7.5390   22.1700   16.6040 C   0  0  0  0  0  0  0  0  0  0  0  0
    1.8700   17.1420   16.1100 C   0  0  0  0  0  0  0  0  0  0  0  0
    3.4940   18.5620   14.9070 C   0  0  0  0  0  0  0  0  0  0  0  0
    3.5440   17.8030   13.9020 O   0  0  0  0  0  0  0  0  0  0  0  0
    3.9250   19.7460   14.8220 O   0  5  0  0  0  0  0  0  0  0  0  0
    1.8760   16.8990   18.5070 C   0  0  0  0  0  0  0  0  0  0  0  0
    1.3370   16.5830   17.2650 C   0  0  0  0  0  0  0  0  0  0  0  0
    7.6360   20.0960   19.8380 H   0  0  0  0  0  0  0  0  0  0  0  0
    9.5510   21.4770   19.2140 H   0  0  0  0  0  0  0  0  0  0  0  0
    4.8410   19.6180   16.5410 H   0  0  0  0  0  0  0  0  0  0  0  0
    9.4910   22.8000   17.1600 H   0  0  0  0  0  0  0  0  0  0  0  0
    5.5950   21.3800   16.3210 H   0  0  0  0  0  0  0  0  0  0  0  0
    3.3390   17.9910   19.5540 H   0  0  0  0  0  0  0  0  0  0  0  0
    7.5180   22.7450   15.7140 H   0  0  0  0  0  0  0  0  0  0  0  0
    1.4530   16.8800   15.1710 H   0  0  0  0  0  0  0  0  0  0  0  0
    1.4740   16.4610   19.3830 H   0  0  0  0  0  0  0  0  0  0  0  0
    0.5220   15.9100   17.1980 H   0  0  0  0  0  0  0  0  0  0  0  0
  1  2  2  0  0  0  0
  1  3  1  0  0  0  0
  1 19  1  0  0  0  0
  2  7  1  0  0  0  0
  2 20  1  0  0  0  0
  3  4  1  0  0  0  0
  3  9  2  0  0  0  0
  4  5  1  0  0  0  0
  4  6  2  0  0  0  0
  5  8  1  0  0  0  0
  5 21  1  0  0  0  0
  7 12  2  0  0  0  0
  7 22  1  0  0  0  0
  8 10  1  0  0  0  0
  8 11  2  0  0  0  0
  9 12  1  0  0  0  0
  9 23  1  0  0  0  0
 10 17  2  0  0  0  0
 10 24  1  0  0  0  0
 11 13  1  0  0  0  0
 11 14  1  0  0  0  0
 12 25  1  0  0  0  0
 13 18  2  0  0  0  0
 13 26  1  0  0  0  0
 14 15  2  0  0  0  0
 14 16  1  0  0  0  0
 17 18  1  0  0  0  0
 17 27  1  0  0  0  0
 18 28  1  0  0  0  0
M  CHG  1  16  -1
M  END
> <rseq>
1

> <mseq>
49

> <S>
-5.144701

> <rmsd_refine>
1.396181

> <E_conf>
-78.87286

> <E_score1>
-9.728186

> <E_refine>
-23.77315

> <E_score2>
-5.144701

>  <$File>
outputs/pdb_4j58_cleaned.pdb_2024_06_17__22_47_40_V2_BS398_MIN1_/SDF/sdf_db.sdf

> <Rec_index>
1

>  <PLIF_raw>
[[6,15,15,16,16,2,2,2,2,2,2],[1499,823,826,826,829,1650,1653,1657,1659,1655,1651],[101,54,54,54,54,112,112,112,112,112,112],[4,7,7,7,7,10,10,10,10,10,10],[1.9,3.30986718,1.855835829,3.767812675,0.5572750455,0.8,0.8,0.8,0.8,0.8,0.8]]

> <FP:PLIF>
1 16 11 12 15

>  <PLIF_ligidx>
[[15,15,16,16],16,6,6,[2,2,2,2,2,2]]

$$$$
49
  MOE2022           3D

 32 32  0  0  1  0  0  0  0  0999 V2000
    4.5810   14.0940   10.9440 C   0  0  0  0  0  0  0  0  0  0  0  0
    5.3190   14.8900   10.0740 C   0  0  0  0  0  0  0  0  0  0  0  0
    3.5180   14.6370   11.6580 C   0  0  0  0  0  0  0  0  0  0  0  0
    3.1880   15.9940   11.5240 C   0  0  0  0  0  0  0  0  0  0  0  0
    4.9860   16.2300    9.9120 C   0  0  0  0  0  0  0  0  0  0  0  0
    3.9320   16.7800   10.6340 C   0  0  0  0  0  0  0  0  0  0  0  0
    2.0680   16.5980   12.2530 C   0  0  0  0  0  0  0  0  0  0  0  0
    1.8570   16.3850   13.5950 N   0  0  0  0  0  0  0  0  0  0  0  0
    1.2660   17.3420   11.7000 O   0  0  0  0  0  0  0  0  0  0  0  0
    2.7370   15.6600   14.5040 C   0  0  0  0  0  0  0  0  0  0  0  0
    2.6260   16.1290   15.9620 C   0  0  0  0  0  0  0  0  0  0  0  0
    3.0230   17.5660   16.2170 C   0  0  0  0  0  0  0  0  0  0  0  0
    2.2280   18.3710   17.2310 C   0  0  1  0  0  0  0  0  0  0  0  0
    4.0070   18.0130   15.6920 O   0  0  0  0  0  0  0  0  0  0  0  0
    2.2810   17.7230   18.6040 C   0  0  0  0  0  0  0  0  0  0  0  0
    1.2140   17.2750   19.0790 O   0  5  0  0  0  0  0  0  0  0  0  0
    2.6090   19.8650   17.2700 C   0  0  0  0  0  0  0  0  0  0  0  0
    3.3910   17.6420   19.1750 O   0  0  0  0  0  0  0  0  0  0  0  0
    4.8270   13.0700   11.0570 H   0  0  0  0  0  0  0  0  0  0  0  0
    6.1270   14.4740    9.5300 H   0  0  0  0  0  0  0  0  0  0  0  0
    2.9510   14.0130   12.2990 H   0  0  0  0  0  0  0  0  0  0  0  0
    5.5340   16.8300    9.2330 H   0  0  0  0  0  0  0  0  0  0  0  0
    3.6870   17.8040   10.5050 H   0  0  0  0  0  0  0  0  0  0  0  0
    1.0110   16.8050   14.0100 H   0  0  0  0  0  0  0  0  0  0  0  0
    2.4810   14.6020   14.4660 H   0  0  0  0  0  0  0  0  0  0  0  0
    3.7680   15.7680   14.1810 H   0  0  0  0  0  0  0  0  0  0  0  0
    1.6140   15.9630   16.3050 H   0  0  0  0  0  0  0  0  0  0  0  0
    3.2480   15.5000   16.5820 H   0  0  0  0  0  0  0  0  0  0  0  0
    1.1960   18.3320   16.9080 H   0  0  0  0  0  0  0  0  0  0  0  0
    1.9400   20.4110   17.9360 H   0  0  0  0  0  0  0  0  0  0  0  0
    3.6310   19.9930   17.6290 H   0  0  0  0  0  0  0  0  0  0  0  0
    2.5320   20.3070   16.2770 H   0  0  0  0  0  0  0  0  0  0  0  0
  1  2  2  0  0  0  0
  1  3  1  0  0  0  0
  1 19  1  0  0  0  0
  2  5  1  0  0  0  0
  2 20  1  0  0  0  0
  3  4  2  0  0  0  0
  3 21  1  0  0  0  0
  4  6  1  0  0  0  0
  4  7  1  0  0  0  0
  5  6  2  0  0  0  0
  5 22  1  0  0  0  0
  6 23  1  0  0  0  0
  7  8  1  0  0  0  0
  7  9  2  0  0  0  0
  8 10  1  0  0  0  0
  8 24  1  0  0  0  0
 10 11  1  0  0  0  0
 10 25  1  0  0  0  0
 10 26  1  0  0  0  0
 11 12  1  0  0  0  0
 11 27  1  0  0  0  0
 11 28  1  0  0  0  0
 12 13  1  0  0  0  0
 12 14  2  0  0  0  0
 13 15  1  0  0  0  0
 13 17  1  0  0  0  0
 13 29  1  0  0  0  0
 15 16  1  0  0  0  0
 15 18  2  0  0  0  0
 17 30  1  0  0  0  0
 17 31  1  0  0  0  0
 17 32  1  0  0  0  0
M  CHG  1  16  -1
M  END
> <rseq>
1

> <mseq>
50

> <S>
-4.672547

> <rmsd_refine>
1.510327

> <E_conf>
-115.655

> <E_score1>
-7.566995

> <E_refine>
-20.65515

> <E_score2>
-4.672547

>  <$File>
outputs/pdb_4j58_cleaned.pdb_2024_06_17__22_47_40_V2_BS398_MIN1_/SDF/sdf_db.sdf

> <Rec_index>
1

>  <PLIF_raw>
[[],[],[],[],[]]

>  <PLIF_ligidx>
[]

$$$$
50
  MOE2022           3D

 35 36  0  0  0  0  0  0  0  0999 V2000
    1.6580   16.2660   20.5240 C   0  0  0  0  0  0  0  0  0  0  0  0
    2.4420   16.6560   19.4450 C   0  0  0  0  0  0  0  0  0  0  0  0
    1.9210   16.6310   18.1450 C   0  0  0  0  0  0  0  0  0  0  0  0
    2.7370   17.0690   17.0170 C   0  0  0  0  0  0  0  0  0  0  0  0
    0.3450   15.8530   20.3170 C   0  0  0  0  0  0  0  0  0  0  0  0
    0.6050   16.2030   17.9460 C   0  0  0  0  0  0  0  0  0  0  0  0
   -0.1790   15.8170   19.0270 C   0  0  0  0  0  0  0  0  0  0  0  0
    3.4110   16.2780   16.3600 O   0  0  0  0  0  0  0  0  0  0  0  0
    2.7660   18.4170   16.6880 N   0  0  0  0  0  0  0  0  0  0  0  0
    1.9340   19.4150   17.3920 C   0  0  0  0  0  0  0  0  0  0  0  0
    2.5710   20.8170   17.4520 C   0  0  0  0  0  0  0  0  0  0  0  0
    4.1110   20.7560   17.5610 C   0  0  0  0  0  0  0  0  0  0  0  0
    3.7080   18.9720   15.7050 C   0  0  0  0  0  0  0  0  0  0  0  0
    4.6570   20.0390   16.3030 C   0  0  0  0  0  0  0  0  0  0  0  0
    4.4990   19.9720   18.6830 O   0  0  0  0  0  0  0  0  0  0  0  0
    4.7440   22.1620   17.7540 C   0  0  0  0  0  0  0  0  0  0  0  0
    4.3210   22.7680   18.9880 O   0  0  0  0  0  0  0  0  0  0  0  0
    4.4390   23.0770   16.6870 O   0  0  0  0  0  0  0  0  0  0  0  0
    2.0600   16.2870   21.5040 H   0  0  0  0  0  0  0  0  0  0  0  0
    3.4370   16.9800   19.6080 H   0  0  0  0  0  0  0  0  0  0  0  0
   -0.2590   15.5710   21.1380 H   0  0  0  0  0  0  0  0  0  0  0  0
    0.2020   16.1750   16.9660 H   0  0  0  0  0  0  0  0  0  0  0  0
   -1.1770   15.4970   18.8690 H   0  0  0  0  0  0  0  0  0  0  0  0
    0.9580   19.4770   16.9290 H   0  0  0  0  0  0  0  0  0  0  0  0
    1.7460   19.0940   18.4050 H   0  0  0  0  0  0  0  0  0  0  0  0
    2.3050   21.3520   16.5400 H   0  0  0  0  0  0  0  0  0  0  0  0
    2.1450   21.3680   18.2900 H   0  0  0  0  0  0  0  0  0  0  0  0
    4.2880   18.2020   15.2170 H   0  0  0  0  0  0  0  0  0  0  0  0
    3.1320   19.4280   14.9110 H   0  0  0  0  0  0  0  0  0  0  0  0
    4.8650   20.7640   15.5170 H   0  0  0  0  0  0  0  0  0  0  0  0
    5.6000   19.5620   16.5640 H   0  0  0  0  0  0  0  0  0  0  0  0
    5.4370   19.7790   18.6140 H   0  0  0  0  0  0  0  0  0  0  0  0
    5.8210   22.0650   17.8010 H   0  0  0  0  0  0  0  0  0  0  0  0
    4.0260   22.0690   19.5950 H   0  0  0  0  0  0  0  0  0  0  0  0
    4.7390   22.7190   15.8370 H   0  0  0  0  0  0  0  0  0  0  0  0
  1  2  1  0  0  0  0
  1  5  2  0  0  0  0
  1 19  1  0  0  0  0
  2  3  2  0  0  0  0
  2 20  1  0  0  0  0
  3  4  1  0  0  0  0
  3  6  1  0  0  0  0
  4  8  2  0  0  0  0
  4  9  1  0  0  0  0
  5  7  1  0  0  0  0
  5 21  1  0  0  0  0
  6  7  2  0  0  0  0
  6 22  1  0  0  0  0
  7 23  1  0  0  0  0
  9 10  1  0  0  0  0
  9 13  1  0  0  0  0
 10 11  1  0  0  0  0
 10 24  1  0  0  0  0
 10 25  1  0  0  0  0
 11 12  1  0  0  0  0
 11 26  1  0  0  0  0
 11 27  1  0  0  0  0
 12 14  1  0  0  0  0
 12 15  1  0  0  0  0
 12 16  1  0  0  0  0
 13 14  1  0  0  0  0
 13 28  1  0  0  0  0
 13 29  1  0  0  0  0
 14 30  1  0  0  0  0
 14 31  1  0  0  0  0
 15 32  1  0  0  0  0
 16 17  1  0  0  0  0
 16 18  1  0  0  0  0
 16 33  1  0  0  0  0
 17 34  1  0  0  0  0
 18 35  1  0  0  0  0
M  END
> <rseq>
1

> <mseq>
51

> <S>
-4.884247

> <rmsd_refine>
1.224102

> <E_conf>
-1.662426

> <E_score1>
-8.235925

> <E_refine>
-20.70709

> <E_score2>
-4.884247

>  <$File>
outputs/pdb_4j58_cleaned.pdb_2024_06_17__22_47_40_V2_BS398_MIN1_/SDF/sdf_db.sdf

> <Rec_index>
1

>  <PLIF_raw>
[[8,1,2,3,6,7,5],[954,1519,1519,1519,1519,1519,1519],[62,102,102,102,102,102,102],[2,10,10,10,10,10,10],[0.7,0.9,0.9,0.9,0.9,0.9,0.9]]

> <FP:PLIF>
20 22

>  <PLIF_ligidx>
[8,[1,2,3,6,7,5]]

$$$$
51
  MOE2022           3D

 29 29  0  0  0  0  0  0  0  0999 V2000
    7.4410   21.4670   19.7890 C   0  0  0  0  0  0  0  0  0  0  0  0
    6.6360   21.2080   18.5320 C   0  0  0  0  0  0  0  0  0  0  0  0
    6.9930   21.9010   17.3830 C   0  0  0  0  0  0  0  0  0  0  0  0
    6.3110   21.7030   16.1790 C   0  0  0  0  0  0  0  0  0  0  0  0
    5.5670   20.3030   18.4750 C   0  0  0  0  0  0  0  0  0  0  0  0
    5.2320   19.6300   19.6110 O   0  0  0  0  0  0  0  0  0  0  0  0
    4.8550   20.0820   17.2830 C   0  0  0  0  0  0  0  0  0  0  0  0
    6.7260   22.4130   14.9710 C   0  0  0  0  0  0  0  0  0  0  0  0
    5.2390   20.8000   16.1530 C   0  0  0  0  0  0  0  0  0  0  0  0
    3.6960   19.1020   17.0810 C   0  0  0  0  0  0  0  0  0  0  0  0
    6.6500   21.8290   13.8540 O   0  0  0  0  0  0  0  0  0  0  0  0
    7.1770   23.5850   15.0620 O   0  5  0  0  0  0  0  0  0  0  0  0
    3.1670   18.3680   18.2400 N   0  0  0  0  0  0  0  0  0  0  0  0
    2.6670   17.0860   18.1590 C   0  0  0  0  0  0  0  0  0  0  0  0
    2.0030   16.5150   19.3390 C   0  0  0  0  0  0  0  0  0  0  0  0
    2.7850   16.4600   17.1050 O   0  0  0  0  0  0  0  0  0  0  0  0
    2.1620   16.9470   20.4740 O   0  0  0  0  0  0  0  0  0  0  0  0
    1.1610   15.4560   19.1580 N   0  0  0  0  0  0  0  0  0  0  0  0
    8.5020   21.3340   19.5770 H   0  0  0  0  0  0  0  0  0  0  0  0
    7.2910   22.4930   20.1240 H   0  0  0  0  0  0  0  0  0  0  0  0
    7.1790   20.7970   20.6060 H   0  0  0  0  0  0  0  0  0  0  0  0
    7.8030   22.5850   17.4140 H   0  0  0  0  0  0  0  0  0  0  0  0
    4.5380   18.9740   19.3970 H   0  0  0  0  0  0  0  0  0  0  0  0
    4.7150   20.6570   15.2420 H   0  0  0  0  0  0  0  0  0  0  0  0
    2.8750   19.6430   16.6280 H   0  0  0  0  0  0  0  0  0  0  0  0
    4.0070   18.4000   16.3190 H   0  0  0  0  0  0  0  0  0  0  0  0
    2.9220   18.9280   19.0750 H   0  0  0  0  0  0  0  0  0  0  0  0
    0.5090   14.6600   19.1080 H   0  0  0  0  0  0  0  0  0  0  0  0
    1.3310   15.3240   18.1450 H   0  0  0  0  0  0  0  0  0  0  0  0
  1  2  1  0  0  0  0
  1 19  1  0  0  0  0
  1 20  1  0  0  0  0
  1 21  1  0  0  0  0
  2  3  2  0  0  0  0
  2  5  1  0  0  0  0
  3  4  1  0  0  0  0
  3 22  1  0  0  0  0
  4  8  1  0  0  0  0
  4  9  2  0  0  0  0
  5  6  1  0  0  0  0
  5  7  2  0  0  0  0
  6 23  1  0  0  0  0
  7  9  1  0  0  0  0
  7 10  1  0  0  0  0
  8 11  2  0  0  0  0
  8 12  1  0  0  0  0
  9 24  1  0  0  0  0
 10 13  1  0  0  0  0
 10 25  1  0  0  0  0
 10 26  1  0  0  0  0
 13 14  1  0  0  0  0
 13 27  1  0  0  0  0
 14 15  1  0  0  0  0
 14 16  2  0  0  0  0
 15 17  2  0  0  0  0
 15 18  1  0  0  0  0
 18 28  1  0  0  0  0
 18 29  1  0  0  0  0
M  CHG  1  12  -1
M  END
> <rseq>
1

> <mseq>
52

> <S>
-5.065394

> <rmsd_refine>
1.671369

> <E_conf>
-8.31137

> <E_score1>
-7.505346

> <E_refine>
-33.17879

> <E_score2>
-5.065394

>  <$File>
outputs/pdb_4j58_cleaned.pdb_2024_06_17__22_47_40_V2_BS398_MIN1_/SDF/sdf_db.sdf

> <Rec_index>
1

>  <PLIF_raw>
[[13,18,11,11,16,11,11],[1504,1071,826,829,954,826,829],[101,71,54,54,62,54,54],[3,3,2,2,2,7,7],[1.8,1.5,5.4,5.4,0.5,4.723259364,4.046006251]]

> <FP:PLIF>
6 19 1 16 20 7 14 8 10

>  <PLIF_ligidx>
[[11,11],[11,11],[11,11],[11,11],16,18,18,13,13]

$$$$
52
  MOE2022           3D

 33 35  0  0  1  0  0  0  0  0999 V2000
    8.2120   20.7260   18.2250 C   0  0  0  0  0  0  0  0  0  0  0  0
    7.1310   20.5550   17.3700 C   0  0  0  0  0  0  0  0  0  0  0  0
    5.9950   21.3570   17.4740 C   0  0  0  0  0  0  0  0  0  0  0  0
    5.9790   22.3470   18.4640 C   0  0  0  0  0  0  0  0  0  0  0  0
    4.8430   21.1310   16.5060 C   0  0  2  0  0  0  0  0  0  0  0  0
    4.8870   23.1520   18.6470 O   0  0  0  0  0  0  0  0  0  0  0  0
    7.0750   22.5480   19.3000 C   0  0  0  0  0  0  0  0  0  0  0  0
    8.1900   21.7320   19.1770 C   0  0  0  0  0  0  0  0  0  0  0  0
    4.2750   19.6970   16.5870 C   0  0  2  0  0  0  0  0  0  0  0  0
    5.2920   21.4330   15.1620 O   0  0  0  0  0  0  0  0  0  0  0  0
    3.1650   19.4530   15.6660 N   0  0  0  0  0  0  0  0  0  0  0  0
    3.7440   19.4180   17.8990 O   0  0  0  0  0  0  0  0  0  0  0  0
    2.4830   18.7270   17.8130 C   0  0  1  0  0  0  0  0  0  0  0  0
    2.3060   18.4550   16.3290 C   0  0  2  0  0  0  0  0  0  0  0  0
    2.8070   17.0040   16.1990 C   0  0  0  0  0  0  0  0  0  0  0  0
    2.5320   17.3770   18.5250 C   0  0  1  0  0  0  0  0  0  0  0  0
    1.2450   17.0090   19.0500 O   0  0  0  0  0  0  0  0  0  0  0  0
    2.9070   16.4330   17.5210 O   0  0  0  0  0  0  0  0  0  0  0  0
    9.0540   20.0920   18.1500 H   0  0  0  0  0  0  0  0  0  0  0  0
    7.1830   19.8060   16.6310 H   0  0  0  0  0  0  0  0  0  0  0  0
    4.0330   21.8150   16.7150 H   0  0  0  0  0  0  0  0  0  0  0  0
    4.1570   22.8950   18.0510 H   0  0  0  0  0  0  0  0  0  0  0  0
    7.0640   23.3170   20.0240 H   0  0  0  0  0  0  0  0  0  0  0  0
    9.0300   21.8740   19.8010 H   0  0  0  0  0  0  0  0  0  0  0  0
    5.0510   18.9720   16.3920 H   0  0  0  0  0  0  0  0  0  0  0  0
    5.5380   22.3710   15.1040 H   0  0  0  0  0  0  0  0  0  0  0  0
    3.4680   19.1720   14.7440 H   0  0  0  0  0  0  0  0  0  0  0  0
    1.7090   19.3870   18.2020 H   0  0  0  0  0  0  0  0  0  0  0  0
    1.2620   18.5270   16.0210 H   0  0  0  0  0  0  0  0  0  0  0  0
    2.1050   16.4140   15.6090 H   0  0  0  0  0  0  0  0  0  0  0  0
    3.7950   16.9760   15.7390 H   0  0  0  0  0  0  0  0  0  0  0  0
    3.2580   17.3660   19.3280 H   0  0  0  0  0  0  0  0  0  0  0  0
    0.9450   17.6790   19.6840 H   0  0  0  0  0  0  0  0  0  0  0  0
  1  2  1  0  0  0  0
  1  8  2  0  0  0  0
  1 19  1  0  0  0  0
  2  3  2  0  0  0  0
  2 20  1  0  0  0  0
  3  4  1  0  0  0  0
  3  5  1  0  0  0  0
  4  6  1  0  0  0  0
  4  7  2  0  0  0  0
  5  9  1  0  0  0  0
  5 10  1  0  0  0  0
  5 21  1  0  0  0  0
  6 22  1  0  0  0  0
  7  8  1  0  0  0  0
  7 23  1  0  0  0  0
  8 24  1  0  0  0  0
  9 11  1  0  0  0  0
  9 12  1  0  0  0  0
  9 25  1  0  0  0  0
 10 26  1  0  0  0  0
 11 14  1  0  0  0  0
 11 27  1  0  0  0  0
 12 13  1  0  0  0  0
 13 14  1  0  0  0  0
 13 16  1  0  0  0  0
 13 28  1  0  0  0  0
 14 15  1  0  0  0  0
 14 29  1  0  0  0  0
 15 18  1  0  0  0  0
 15 30  1  0  0  0  0
 15 31  1  0  0  0  0
 16 17  1  0  0  0  0
 16 18  1  0  0  0  0
 16 32  1  0  0  0  0
 17 33  1  0  0  0  0
M  END
> <rseq>
1

> <mseq>
53

> <S>
-4.837037

> <rmsd_refine>
1.501671

> <E_conf>
71.98106

> <E_score1>
-8.420727

> <E_refine>
-20.44626

> <E_score2>
-4.837037

>  <$File>
outputs/pdb_4j58_cleaned.pdb_2024_06_17__22_47_40_V2_BS398_MIN1_/SDF/sdf_db.sdf

> <Rec_index>
1

>  <PLIF_raw>
[18,954,62,2,1.6]

> <FP:PLIF>
20 23

>  <PLIF_ligidx>
[18,18]

$$$$
53
  MOE2022           3D

 35 36  0  0  1  0  0  0  0  0999 V2000
    1.6550   16.3410   20.4990 C   0  0  0  0  0  0  0  0  0  0  0  0
    2.4490   16.7510   19.4350 C   0  0  0  0  0  0  0  0  0  0  0  0
    1.9510   16.7230   18.1270 C   0  0  0  0  0  0  0  0  0  0  0  0
    2.7900   17.1490   17.0110 C   0  0  0  0  0  0  0  0  0  0  0  0
    0.3510   15.9110   20.2690 C   0  0  0  0  0  0  0  0  0  0  0  0
    0.6430   16.2800   17.9050 C   0  0  0  0  0  0  0  0  0  0  0  0
   -0.1520   15.8770   18.9720 C   0  0  0  0  0  0  0  0  0  0  0  0
    3.4160   16.3380   16.3310 O   0  0  0  0  0  0  0  0  0  0  0  0
    2.9040   18.5010   16.7200 N   0  0  0  0  0  0  0  0  0  0  0  0
    2.0460   19.5210   17.3630 C   0  0  0  0  0  0  0  0  0  0  0  0
    2.6560   20.9400   17.3380 C   0  0  2  0  0  0  0  0  0  0  0  0
    4.1900   20.8950   17.5790 C   0  0  2  0  0  0  0  0  0  0  0  0
    3.9040   19.0210   15.7770 C   0  0  0  0  0  0  0  0  0  0  0  0
    4.7990   20.1360   16.3750 C   0  0  0  0  0  0  0  0  0  0  0  0
    4.5410   20.1580   18.7430 O   0  0  0  0  0  0  0  0  0  0  0  0
    1.9460   21.7960   18.2160 O   0  0  0  0  0  0  0  0  0  0  0  0
    4.8420   22.2920   17.6850 C   0  0  0  0  0  0  0  0  0  0  0  0
    4.5090   22.9580   18.8920 O   0  0  0  0  0  0  0  0  0  0  0  0
    2.0410   16.3600   21.4860 H   0  0  0  0  0  0  0  0  0  0  0  0
    3.4380   17.0870   19.6160 H   0  0  0  0  0  0  0  0  0  0  0  0
   -0.2610   15.6120   21.0790 H   0  0  0  0  0  0  0  0  0  0  0  0
    0.2570   16.2500   16.9180 H   0  0  0  0  0  0  0  0  0  0  0  0
   -1.1430   15.5450   18.7960 H   0  0  0  0  0  0  0  0  0  0  0  0
    1.0760   19.5390   16.8860 H   0  0  0  0  0  0  0  0  0  0  0  0
    1.8530   19.2450   18.3870 H   0  0  0  0  0  0  0  0  0  0  0  0
    2.4950   21.3290   16.3310 H   0  0  0  0  0  0  0  0  0  0  0  0
    4.5270   18.2330   15.3820 H   0  0  0  0  0  0  0  0  0  0  0  0
    3.3800   19.4170   14.9180 H   0  0  0  0  0  0  0  0  0  0  0  0
    5.0170   20.8410   15.5720 H   0  0  0  0  0  0  0  0  0  0  0  0
    5.7460   19.6960   16.6860 H   0  0  0  0  0  0  0  0  0  0  0  0
    5.4980   20.1230   18.8060 H   0  0  0  0  0  0  0  0  0  0  0  0
    2.1230   22.7080   17.9730 H   0  0  0  0  0  0  0  0  0  0  0  0
    5.9270   22.1910   17.6340 H   0  0  0  0  0  0  0  0  0  0  0  0
    4.5140   22.9030   16.8430 H   0  0  0  0  0  0  0  0  0  0  0  0
    3.6410   22.6450   19.1700 H   0  0  0  0  0  0  0  0  0  0  0  0
  1  2  1  0  0  0  0
  1  5  2  0  0  0  0
  1 19  1  0  0  0  0
  2  3  2  0  0  0  0
  2 20  1  0  0  0  0
  3  4  1  0  0  0  0
  3  6  1  0  0  0  0
  4  8  2  0  0  0  0
  4  9  1  0  0  0  0
  5  7  1  0  0  0  0
  5 21  1  0  0  0  0
  6  7  2  0  0  0  0
  6 22  1  0  0  0  0
  7 23  1  0  0  0  0
  9 10  1  0  0  0  0
  9 13  1  0  0  0  0
 10 11  1  0  0  0  0
 10 24  1  0  0  0  0
 10 25  1  0  0  0  0
 11 12  1  0  0  0  0
 11 16  1  0  0  0  0
 11 26  1  0  0  0  0
 12 14  1  0  0  0  0
 12 15  1  0  0  0  0
 12 17  1  0  0  0  0
 13 14  1  0  0  0  0
 13 27  1  0  0  0  0
 13 28  1  0  0  0  0
 14 29  1  0  0  0  0
 14 30  1  0  0  0  0
 15 31  1  0  0  0  0
 16 32  1  0  0  0  0
 17 18  1  0  0  0  0
 17 33  1  0  0  0  0
 17 34  1  0  0  0  0
 18 35  1  0  0  0  0
M  END
> <rseq>
1

> <mseq>
54

> <S>
-4.93735

> <rmsd_refine>
1.188503

> <E_conf>
54.39216

> <E_score1>
-8.254869

> <E_refine>
-21.67599

> <E_score2>
-4.93735

>  <$File>
outputs/pdb_4j58_cleaned.pdb_2024_06_17__22_47_40_V2_BS398_MIN1_/SDF/sdf_db.sdf

> <Rec_index>
1

>  <PLIF_raw>
[[8,1,2,3,6,7,5],[954,1519,1519,1519,1519,1519,1519],[62,102,102,102,102,102,102],[2,10,10,10,10,10,10],[0.7,0.9,0.9,0.9,0.9,0.9,0.9]]

> <FP:PLIF>
20 22

>  <PLIF_ligidx>
[8,[1,2,3,6,7,5]]

$$$$
54
  MOE2022           3D

 37 38  0  0  1  0  0  0  0  0999 V2000
    2.4690   17.0010   19.7210 C   0  0  0  0  0  0  0  0  0  0  0  0
    3.1100   17.7520   18.7420 C   0  0  0  0  0  0  0  0  0  0  0  0
    2.5840   17.8250   17.4470 C   0  0  0  0  0  0  0  0  0  0  0  0
    3.2880   18.5520   16.3950 C   0  0  0  0  0  0  0  0  0  0  0  0
    1.2840   16.3350   19.4240 C   0  0  0  0  0  0  0  0  0  0  0  0
    1.3910   17.1530   17.1590 C   0  0  0  0  0  0  0  0  0  0  0  0
    0.7440   16.4150   18.1440 C   0  0  0  0  0  0  0  0  0  0  0  0
    3.9240   17.9490   15.5330 O   0  0  0  0  0  0  0  0  0  0  0  0
    3.2520   19.9400   16.3460 N   0  0  0  0  0  0  0  0  0  0  0  0
    2.6330   20.7840   17.3770 C   0  0  0  0  0  0  0  0  0  0  0  0
    3.6850   21.5630   18.1950 C   0  0  2  0  0  0  0  0  0  0  0  0
    4.0910   20.7140   15.4250 C   0  0  0  0  0  0  0  0  0  0  0  0
    5.2150   21.4360   16.1830 C   0  0  0  0  0  0  0  0  0  0  0  0
    3.0230   22.4290   19.0980 O   0  0  0  0  0  0  0  0  0  0  0  0
    4.6640   22.3590   17.2920 C   0  0  2  0  0  0  0  0  0  0  0  0
    5.8210   23.0640   18.0460 C   0  0  1  0  0  0  0  0  0  0  0  0
    5.2970   24.0950   18.8550 O   0  0  0  0  0  0  0  0  0  0  0  0
    6.6950   22.1560   18.9260 C   0  0  0  0  0  0  0  0  0  0  0  0
    2.8810   16.9350   20.6940 H   0  0  0  0  0  0  0  0  0  0  0  0
    4.0060   18.2660   18.9770 H   0  0  0  0  0  0  0  0  0  0  0  0
    0.7940   15.7660   20.1710 H   0  0  0  0  0  0  0  0  0  0  0  0
    0.9810   17.2000   16.1830 H   0  0  0  0  0  0  0  0  0  0  0  0
   -0.1580   15.9070   17.9170 H   0  0  0  0  0  0  0  0  0  0  0  0
    1.9680   21.4910   16.8990 H   0  0  0  0  0  0  0  0  0  0  0  0
    1.9960   20.2120   18.0350 H   0  0  0  0  0  0  0  0  0  0  0  0
    4.2490   20.8240   18.7630 H   0  0  0  0  0  0  0  0  0  0  0  0
    4.5030   20.0960   14.6410 H   0  0  0  0  0  0  0  0  0  0  0  0
    3.4780   21.4430   14.9130 H   0  0  0  0  0  0  0  0  0  0  0  0
    5.8630   20.6760   16.6200 H   0  0  0  0  0  0  0  0  0  0  0  0
    5.7970   22.0250   15.4740 H   0  0  0  0  0  0  0  0  0  0  0  0
    2.4520   21.8950   19.6610 H   0  0  0  0  0  0  0  0  0  0  0  0
    4.0840   23.1380   16.7910 H   0  0  0  0  0  0  0  0  0  0  0  0
    6.4720   23.5330   17.3070 H   0  0  0  0  0  0  0  0  0  0  0  0
    4.3930   23.8530   19.0790 H   0  0  0  0  0  0  0  0  0  0  0  0
    7.2050   21.4130   18.3140 H   0  0  0  0  0  0  0  0  0  0  0  0
    7.4520   22.7600   19.4270 H   0  0  0  0  0  0  0  0  0  0  0  0
    6.0940   21.6510   19.6800 H   0  0  0  0  0  0  0  0  0  0  0  0
  1  2  1  0  0  0  0
  1  5  2  0  0  0  0
  1 19  1  0  0  0  0
  2  3  2  0  0  0  0
  2 20  1  0  0  0  0
  3  4  1  0  0  0  0
  3  6  1  0  0  0  0
  4  8  2  0  0  0  0
  4  9  1  0  0  0  0
  5  7  1  0  0  0  0
  5 21  1  0  0  0  0
  6  7  2  0  0  0  0
  6 22  1  0  0  0  0
  7 23  1  0  0  0  0
  9 10  1  0  0  0  0
  9 12  1  0  0  0  0
 10 11  1  0  0  0  0
 10 24  1  0  0  0  0
 10 25  1  0  0  0  0
 11 14  1  0  0  0  0
 11 15  1  0  0  0  0
 11 26  1  0  0  0  0
 12 13  1  0  0  0  0
 12 27  1  0  0  0  0
 12 28  1  0  0  0  0
 13 15  1  0  0  0  0
 13 29  1  0  0  0  0
 13 30  1  0  0  0  0
 14 31  1  0  0  0  0
 15 16  1  0  0  0  0
 15 32  1  0  0  0  0
 16 17  1  0  0  0  0
 16 18  1  0  0  0  0
 16 33  1  0  0  0  0
 17 34  1  0  0  0  0
 18 35  1  0  0  0  0
 18 36  1  0  0  0  0
 18 37  1  0  0  0  0
M  END
> <rseq>
1

> <mseq>
55

> <S>
-4.693926

> <rmsd_refine>
1.477151

> <E_conf>
9.782028

> <E_score1>
-7.999042

> <E_refine>
-21.87647

> <E_score2>
-4.693926

>  <$File>
outputs/pdb_4j58_cleaned.pdb_2024_06_17__22_47_40_V2_BS398_MIN1_/SDF/sdf_db.sdf

> <Rec_index>
1

>  <PLIF_raw>
[[14,17],[1504,1872],[101,125],[3,2],[1.2,0.7]]

> <FP:PLIF>
8 29

>  <PLIF_ligidx>
[14,17]

$$$$
55
  MOE2022           3D

 34 36  0  0  1  0  0  0  0  0999 V2000
    4.8180   19.5390   18.9150 C   0  0  0  0  0  0  0  0  0  0  0  0
    5.5150   20.5890   18.3330 C   0  0  0  0  0  0  0  0  0  0  0  0
    3.7830   18.8880   18.2250 C   0  0  0  0  0  0  0  0  0  0  0  0
    3.0640   17.7810   18.8550 C   0  0  0  0  0  0  0  0  0  0  0  0
    1.8550   17.3090   18.3150 N   0  0  0  0  0  0  0  0  0  0  0  0
    3.4950   17.2270   19.8620 O   0  0  0  0  0  0  0  0  0  0  0  0
    5.1830   21.0140   17.0530 C   0  0  0  0  0  0  0  0  0  0  0  0
    1.4390   17.6490   16.8990 C   0  0  2  0  0  0  0  0  0  0  0  0
    2.3820   18.6320   16.1360 C   0  0  1  0  0  0  0  0  0  0  0  0
    0.9960   16.5670   19.1730 C   0  0  0  0  0  0  0  0  0  0  0  0
    3.4580   19.3220   16.9370 C   0  0  0  0  0  0  0  0  0  0  0  0
    4.1560   20.3820   16.3610 C   0  0  0  0  0  0  0  0  0  0  0  0
    0.0090   18.2460   16.9040 C   0  0  0  0  0  0  0  0  0  0  0  0
    2.9940   17.8670   14.9530 C   0  0  0  0  0  0  0  0  0  0  0  0
    1.9380   16.8240   14.6050 C   0  0  0  0  0  0  0  0  0  0  0  0
    0.3550   15.4860   18.6480 N   0  0  0  0  0  0  0  0  0  0  0  0
    0.8280   16.8750   20.3530 O   0  0  0  0  0  0  0  0  0  0  0  0
    1.4920   16.3970   15.9980 C   0  0  0  0  0  0  0  0  0  0  0  0
    5.0700   19.2400   19.8970 H   0  0  0  0  0  0  0  0  0  0  0  0
    6.2960   21.0680   18.8650 H   0  0  0  0  0  0  0  0  0  0  0  0
    5.7100   21.8180   16.6080 H   0  0  0  0  0  0  0  0  0  0  0  0
    1.7650   19.4310   15.7180 H   0  0  0  0  0  0  0  0  0  0  0  0
    3.9090   20.7120   15.3840 H   0  0  0  0  0  0  0  0  0  0  0  0
   -0.0150   19.1660   17.4890 H   0  0  0  0  0  0  0  0  0  0  0  0
   -0.3230   18.4820   15.8920 H   0  0  0  0  0  0  0  0  0  0  0  0
   -0.7240   17.5600   17.3260 H   0  0  0  0  0  0  0  0  0  0  0  0
    3.2000   18.5250   14.1080 H   0  0  0  0  0  0  0  0  0  0  0  0
    3.9070   17.3650   15.2730 H   0  0  0  0  0  0  0  0  0  0  0  0
    1.1100   17.2850   14.0640 H   0  0  0  0  0  0  0  0  0  0  0  0
    2.3590   15.9910   14.0400 H   0  0  0  0  0  0  0  0  0  0  0  0
   -0.1730   14.6610   18.3290 H   0  0  0  0  0  0  0  0  0  0  0  0
    0.8430   15.4750   17.7420 H   0  0  0  0  0  0  0  0  0  0  0  0
    2.2610   15.7300   16.3850 H   0  0  0  0  0  0  0  0  0  0  0  0
    0.5380   15.8700   15.9490 H   0  0  0  0  0  0  0  0  0  0  0  0
  1  2  1  0  0  0  0
  1  3  2  0  0  0  0
  1 19  1  0  0  0  0
  2  7  2  0  0  0  0
  2 20  1  0  0  0  0
  3  4  1  0  0  0  0
  3 11  1  0  0  0  0
  4  5  1  0  0  0  0
  4  6  2  0  0  0  0
  5  8  1  0  0  0  0
  5 10  1  0  0  0  0
  7 12  1  0  0  0  0
  7 21  1  0  0  0  0
  8  9  1  0  0  0  0
  8 13  1  0  0  0  0
  8 18  1  0  0  0  0
  9 11  1  0  0  0  0
  9 14  1  0  0  0  0
  9 22  1  0  0  0  0
 10 16  1  0  0  0  0
 10 17  2  0  0  0  0
 11 12  2  0  0  0  0
 12 23  1  0  0  0  0
 13 24  1  0  0  0  0
 13 25  1  0  0  0  0
 13 26  1  0  0  0  0
 14 15  1  0  0  0  0
 14 27  1  0  0  0  0
 14 28  1  0  0  0  0
 15 18  1  0  0  0  0
 15 29  1  0  0  0  0
 15 30  1  0  0  0  0
 16 31  1  0  0  0  0
 16 32  1  0  0  0  0
 18 33  1  0  0  0  0
 18 34  1  0  0  0  0
M  END
> <rseq>
1

> <mseq>
56

> <S>
-4.650053

> <rmsd_refine>
2.579551

> <E_conf>
-36.19003

> <E_score1>
-7.859099

> <E_refine>
-21.39015

> <E_score2>
-4.650053

>  <$File>
outputs/pdb_4j58_cleaned.pdb_2024_06_17__22_47_40_V2_BS398_MIN1_/SDF/sdf_db.sdf

> <Rec_index>
1

>  <PLIF_raw>
[[],[],[],[],[]]

>  <PLIF_ligidx>
[]

$$$$
56
  MOE2022           3D

 33 33  0  0  1  0  0  0  0  0999 V2000
    8.5240   21.8280   18.4190 C   0  0  0  0  0  0  0  0  0  0  0  0
    7.6410   22.7100   17.8080 C   0  0  0  0  0  0  0  0  0  0  0  0
    8.1240   20.5250   18.6810 C   0  0  0  0  0  0  0  0  0  0  0  0
    6.8470   20.1040   18.3270 C   0  0  0  0  0  0  0  0  0  0  0  0
    6.3620   22.2870   17.4550 C   0  0  0  0  0  0  0  0  0  0  0  0
    5.9500   20.9770   17.7050 C   0  0  0  0  0  0  0  0  0  0  0  0
    4.5660   20.5470   17.2160 C   0  0  1  0  0  0  0  0  0  0  0  0
    4.6520   20.2210   15.8080 O   0  0  0  0  0  0  0  0  0  0  0  0
    3.8010   19.4510   17.9660 C   0  0  0  0  0  0  0  0  0  0  0  0
    2.5820   19.1730   17.4700 N   0  0  0  0  0  0  0  0  0  0  0  0
    4.2440   18.8520   18.9450 O   0  0  0  0  0  0  0  0  0  0  0  0
    1.6530   18.1800   18.0060 C   0  0  0  0  0  0  0  0  0  0  0  0
    2.1450   16.7280   17.9300 C   0  0  2  0  0  0  0  0  0  0  0  0
    2.4680   16.2930   16.5120 C   0  0  0  0  0  0  0  0  0  0  0  0
    1.1660   15.8560   18.5420 O   0  0  0  0  0  0  0  0  0  0  0  0
    3.6180   16.0960   16.1160 O   0  0  0  0  0  0  0  0  0  0  0  0
    1.4290   16.1450   15.6650 O   0  0  0  0  0  0  0  0  0  0  0  0
    1.6060   15.6800   14.3050 C   0  0  0  0  0  0  0  0  0  0  0  0
    9.5010   22.1420   18.6820 H   0  0  0  0  0  0  0  0  0  0  0  0
    7.9430   23.7030   17.6030 H   0  0  0  0  0  0  0  0  0  0  0  0
    8.7950   19.8480   19.1410 H   0  0  0  0  0  0  0  0  0  0  0  0
    6.5740   19.1080   18.5310 H   0  0  0  0  0  0  0  0  0  0  0  0
    5.7040   22.9670   16.9780 H   0  0  0  0  0  0  0  0  0  0  0  0
    3.9290   21.4220   17.2480 H   0  0  0  0  0  0  0  0  0  0  0  0
    3.8000   19.8810   15.4910 H   0  0  0  0  0  0  0  0  0  0  0  0
    2.2540   19.7070   16.6800 H   0  0  0  0  0  0  0  0  0  0  0  0
    1.4370   18.4130   19.0450 H   0  0  0  0  0  0  0  0  0  0  0  0
    0.7150   18.2590   17.4560 H   0  0  0  0  0  0  0  0  0  0  0  0
    3.0430   16.6370   18.5250 H   0  0  0  0  0  0  0  0  0  0  0  0
    1.3630   14.9310   18.3110 H   0  0  0  0  0  0  0  0  0  0  0  0
    0.6400   15.6190   13.8030 H   0  0  0  0  0  0  0  0  0  0  0  0
    2.2450   16.3650   13.7470 H   0  0  0  0  0  0  0  0  0  0  0  0
    2.0610   14.6880   14.2990 H   0  0  0  0  0  0  0  0  0  0  0  0
  1  2  1  0  0  0  0
  1  3  2  0  0  0  0
  1 19  1  0  0  0  0
  2  5  2  0  0  0  0
  2 20  1  0  0  0  0
  3  4  1  0  0  0  0
  3 21  1  0  0  0  0
  4  6  2  0  0  0  0
  4 22  1  0  0  0  0
  5  6  1  0  0  0  0
  5 23  1  0  0  0  0
  6  7  1  0  0  0  0
  7  8  1  0  0  0  0
  7  9  1  0  0  0  0
  7 24  1  0  0  0  0
  8 25  1  0  0  0  0
  9 10  1  0  0  0  0
  9 11  2  0  0  0  0
 10 12  1  0  0  0  0
 10 26  1  0  0  0  0
 12 13  1  0  0  0  0
 12 27  1  0  0  0  0
 12 28  1  0  0  0  0
 13 14  1  0  0  0  0
 13 15  1  0  0  0  0
 13 29  1  0  0  0  0
 14 16  2  0  0  0  0
 14 17  1  0  0  0  0
 15 30  1  0  0  0  0
 17 18  1  0  0  0  0
 18 31  1  0  0  0  0
 18 32  1  0  0  0  0
 18 33  1  0  0  0  0
M  END
> <rseq>
1

> <mseq>
57

> <S>
-5.115687

> <rmsd_refine>
1.101999

> <E_conf>
96.219

> <E_score1>
-8.040213

> <E_refine>
-24.47086

> <E_score2>
-5.115687

>  <$File>
outputs/pdb_4j58_cleaned.pdb_2024_06_17__22_47_40_V2_BS398_MIN1_/SDF/sdf_db.sdf

> <Rec_index>
1

>  <PLIF_raw>
[[15,16],[1071,954],[71,62],[3,2],[3.7,2]]

> <FP:PLIF>
20 23 7 14

>  <PLIF_ligidx>
[16,16,15,15]

$$$$
57
  MOE2022           3D

 29 31  0  0  0  0  0  0  0  0999 V2000
    6.4220   20.0990   19.1690 C   0  0  0  0  0  0  0  0  0  0  0  0
    7.4880   20.9090   18.8690 C   0  0  0  0  0  0  0  0  0  0  0  0
    5.3960   19.8880   18.2200 C   0  0  0  0  0  0  0  0  0  0  0  0
    4.3090   19.0310   18.4880 C   0  0  0  0  0  0  0  0  0  0  0  0
    3.3590   18.8020   17.5170 C   0  0  0  0  0  0  0  0  0  0  0  0
    7.5670   21.5570   17.6220 C   0  0  0  0  0  0  0  0  0  0  0  0
    8.7510   22.4530   17.3530 C   0  0  0  0  0  0  0  0  0  0  0  0
    6.5610   21.3970   16.6750 C   0  0  0  0  0  0  0  0  0  0  0  0
    3.5020   19.4870   16.2780 C   0  0  0  0  0  0  0  0  0  0  0  0
    6.6080   22.1220   15.4080 C   0  0  0  0  0  0  0  0  0  0  0  0
    2.2490   17.8770   17.7330 C   0  0  0  0  0  0  0  0  0  0  0  0
    7.3690   21.7130   14.4850 O   0  0  0  0  0  0  0  0  0  0  0  0
    5.9120   23.1600   15.2680 O   0  5  0  0  0  0  0  0  0  0  0  0
    5.4690   20.5290   16.9620 C   0  0  0  0  0  0  0  0  0  0  0  0
    4.4920   20.2940   16.0210 N   0  0  0  0  0  0  0  0  0  0  0  0
    1.2700   17.6110   16.8060 N   0  0  0  0  0  0  0  0  0  0  0  0
    2.0190   17.1330   18.8530 C   0  0  0  0  0  0  0  0  0  0  0  0
    0.9140   16.4230   18.6050 N   0  0  0  0  0  0  0  0  0  0  0  0
    0.4890   16.7370   17.3620 C   0  0  0  0  0  0  0  0  0  0  0  0
    6.3680   19.6250   20.1120 H   0  0  0  0  0  0  0  0  0  0  0  0
    8.2570   21.0530   19.5820 H   0  0  0  0  0  0  0  0  0  0  0  0
    4.2440   18.5590   19.4320 H   0  0  0  0  0  0  0  0  0  0  0  0
    9.2100   22.2110   16.3950 H   0  0  0  0  0  0  0  0  0  0  0  0
    8.4220   23.4910   17.3300 H   0  0  0  0  0  0  0  0  0  0  0  0
    9.5120   22.3450   18.1250 H   0  0  0  0  0  0  0  0  0  0  0  0
    2.7770   19.3390   15.5190 H   0  0  0  0  0  0  0  0  0  0  0  0
    2.5450   17.0600   19.7690 H   0  0  0  0  0  0  0  0  0  0  0  0
    0.4610   15.7500   19.2450 H   0  0  0  0  0  0  0  0  0  0  0  0
   -0.3810   16.2850   16.9570 H   0  0  0  0  0  0  0  0  0  0  0  0
  1  2  2  0  0  0  0
  1  3  1  0  0  0  0
  1 20  1  0  0  0  0
  2  6  1  0  0  0  0
  2 21  1  0  0  0  0
  3  4  1  0  0  0  0
  3 14  2  0  0  0  0
  4  5  2  0  0  0  0
  4 22  1  0  0  0  0
  5  9  1  0  0  0  0
  5 11  1  0  0  0  0
  6  7  1  0  0  0  0
  6  8  2  0  0  0  0
  7 23  1  0  0  0  0
  7 24  1  0  0  0  0
  7 25  1  0  0  0  0
  8 10  1  0  0  0  0
  8 14  1  0  0  0  0
  9 15  2  0  0  0  0
  9 26  1  0  0  0  0
 10 12  2  0  0  0  0
 10 13  1  0  0  0  0
 11 16  1  0  0  0  0
 11 17  2  0  0  0  0
 14 15  1  0  0  0  0
 16 19  2  0  0  0  0
 17 18  1  0  0  0  0
 17 27  1  0  0  0  0
 18 19  1  0  0  0  0
 18 28  1  0  0  0  0
 19 29  1  0  0  0  0
M  CHG  1  13  -1
M  END
> <rseq>
1

> <mseq>
58

> <S>
-4.936596

> <rmsd_refine>
1.16983

> <E_conf>
-59.60734

> <E_score1>
-8.556396

> <E_refine>
-26.9876

> <E_score2>
-4.936596

>  <$File>
outputs/pdb_4j58_cleaned.pdb_2024_06_17__22_47_40_V2_BS398_MIN1_/SDF/sdf_db.sdf

> <Rec_index>
1

>  <PLIF_raw>
[[12,12,12,2,2,2,2,2,2],[826,826,829,1651,1655,1659,1657,1653,1650],[54,54,54,112,112,112,112,112,112],[2,7,7,10,10,10,10,10,10],[5.8,5.398914134,2.110482158,0.6,0.6,0.6,0.6,0.6,0.6]]

> <FP:PLIF>
6 19 1 16 15

>  <PLIF_ligidx>
[12,12,[12,12],12,[2,2,2,2,2,2]]

$$$$
58
  MOE2022           3D

 28 29  0  0  0  0  0  0  0  0999 V2000
    5.9740   20.4350   19.2410 C   0  0  0  0  0  0  0  0  0  0  0  0
    6.8410   21.4250   18.8080 C   0  0  0  0  0  0  0  0  0  0  0  0
    5.0620   19.8560   18.3530 C   0  0  0  0  0  0  0  0  0  0  0  0
    4.1660   18.8130   18.7710 C   0  0  0  0  0  0  0  0  0  0  0  0
    3.3250   18.2030   17.8930 C   0  0  0  0  0  0  0  0  0  0  0  0
    6.8190   21.8700   17.4810 C   0  0  0  0  0  0  0  0  0  0  0  0
    7.7950   22.9580   17.0810 C   0  0  0  0  0  0  0  0  0  0  0  0
    5.9210   21.3100   16.5560 C   0  0  0  0  0  0  0  0  0  0  0  0
    3.3240   18.6290   16.5070 C   0  0  0  0  0  0  0  0  0  0  0  0
    5.8960   21.7430   15.1550 C   0  0  0  0  0  0  0  0  0  0  0  0
    2.4160   17.0350   18.2940 C   0  0  0  0  0  0  0  0  0  0  0  0
    6.9690   21.7680   14.4870 O   0  0  0  0  0  0  0  0  0  0  0  0
    4.8050   22.0430   14.6040 O   0  5  0  0  0  0  0  0  0  0  0  0
    5.0480   20.2960   17.0190 C   0  0  0  0  0  0  0  0  0  0  0  0
    2.1420   16.8050   19.7730 C   0  0  0  0  0  0  0  0  0  0  0  0
    3.0930   16.4820   20.5180 O   0  0  0  0  0  0  0  0  0  0  0  0
    0.9620   16.9160   20.1720 O   0  5  0  0  0  0  0  0  0  0  0  0
    2.6520   18.1170   15.6090 O   0  0  0  0  0  0  0  0  0  0  0  0
    4.1500   19.6750   16.1400 N   0  0  0  0  0  0  0  0  0  0  0  0
    6.0070   20.1090   20.2470 H   0  0  0  0  0  0  0  0  0  0  0  0
    7.5310   21.8450   19.4930 H   0  0  0  0  0  0  0  0  0  0  0  0
    4.1960   18.5230   19.7850 H   0  0  0  0  0  0  0  0  0  0  0  0
    8.6300   22.5320   16.5230 H   0  0  0  0  0  0  0  0  0  0  0  0
    7.3100   23.7140   16.4630 H   0  0  0  0  0  0  0  0  0  0  0  0
    8.1960   23.4590   17.9580 H   0  0  0  0  0  0  0  0  0  0  0  0
    1.4670   17.1470   17.7870 H   0  0  0  0  0  0  0  0  0  0  0  0
    2.8480   16.1300   17.8920 H   0  0  0  0  0  0  0  0  0  0  0  0
    4.0870   20.0270   15.1700 H   0  0  0  0  0  0  0  0  0  0  0  0
  1  2  2  0  0  0  0
  1  3  1  0  0  0  0
  1 20  1  0  0  0  0
  2  6  1  0  0  0  0
  2 21  1  0  0  0  0
  3  4  1  0  0  0  0
  3 14  2  0  0  0  0
  4  5  2  0  0  0  0
  4 22  1  0  0  0  0
  5  9  1  0  0  0  0
  5 11  1  0  0  0  0
  6  7  1  0  0  0  0
  6  8  2  0  0  0  0
  7 23  1  0  0  0  0
  7 24  1  0  0  0  0
  7 25  1  0  0  0  0
  8 10  1  0  0  0  0
  8 14  1  0  0  0  0
  9 18  2  0  0  0  0
  9 19  1  0  0  0  0
 10 12  2  0  0  0  0
 10 13  1  0  0  0  0
 11 15  1  0  0  0  0
 11 26  1  0  0  0  0
 11 27  1  0  0  0  0
 14 19  1  0  0  0  0
 15 16  2  0  0  0  0
 15 17  1  0  0  0  0
 19 28  1  0  0  0  0
M  CHG  1  13  -1
M  CHG  1  17  -1
M  END
> <rseq>
1

> <mseq>
59

> <S>
-5.058627

> <rmsd_refine>
1.134367

> <E_conf>
-186.626

> <E_score1>
-8.956027

> <E_refine>
-26.44587

> <E_score2>
-5.058627

>  <$File>
outputs/pdb_4j58_cleaned.pdb_2024_06_17__22_47_40_V2_BS398_MIN1_/SDF/sdf_db.sdf

> <Rec_index>
1

>  <PLIF_raw>
[[12,12,12,13],[826,826,829,826],[54,54,54,54],[2,7,7,7],[2.9,5.309299377,2.145056721,1.008866421]]

> <FP:PLIF>
6 19 1 16

>  <PLIF_ligidx>
[12,12,[12,12,13],12]

$$$$
59
  MOE2022           3D

 31 32  0  0  0  0  0  0  0  0999 V2000
    6.4010   20.1680   19.2150 C   0  0  0  0  0  0  0  0  0  0  0  0
    7.4310   20.9910   18.8400 C   0  0  0  0  0  0  0  0  0  0  0  0
    5.3600   19.8600   18.3100 C   0  0  0  0  0  0  0  0  0  0  0  0
    4.3190   18.9720   18.6850 C   0  0  0  0  0  0  0  0  0  0  0  0
    3.3520   18.5690   17.7910 C   0  0  0  0  0  0  0  0  0  0  0  0
    7.4570   21.5690   17.5560 C   0  0  0  0  0  0  0  0  0  0  0  0
    8.6150   22.4790   17.2140 C   0  0  0  0  0  0  0  0  0  0  0  0
    6.4310   21.3250   16.6490 C   0  0  0  0  0  0  0  0  0  0  0  0
    3.3950   19.1190   16.4840 C   0  0  0  0  0  0  0  0  0  0  0  0
    6.4120   21.9960   15.3490 C   0  0  0  0  0  0  0  0  0  0  0  0
    2.2590   17.5550   18.1430 C   0  0  0  0  0  0  0  0  0  0  0  0
    7.2960   21.7230   14.4870 O   0  0  0  0  0  0  0  0  0  0  0  0
    5.5030   22.8280   15.0970 O   0  5  0  0  0  0  0  0  0  0  0  0
    5.3790   20.4170   17.0070 C   0  0  0  0  0  0  0  0  0  0  0  0
    2.1700   17.0050   19.5620 C   0  0  0  0  0  0  0  0  0  0  0  0
    3.1360   16.6090   20.2060 O   0  0  0  0  0  0  0  0  0  0  0  0
    0.9470   16.8760   20.0740 N   0  0  0  0  0  0  0  0  0  0  0  0
    2.4510   18.7550   15.5660 O   0  0  0  0  0  0  0  0  0  0  0  0
    4.3600   20.0240   16.1010 C   0  0  0  0  0  0  0  0  0  0  0  0
    6.3890   19.7480   20.1850 H   0  0  0  0  0  0  0  0  0  0  0  0
    8.2130   21.1970   19.5240 H   0  0  0  0  0  0  0  0  0  0  0  0
    4.3180   18.6160   19.6770 H   0  0  0  0  0  0  0  0  0  0  0  0
    9.1040   22.1570   16.2950 H   0  0  0  0  0  0  0  0  0  0  0  0
    8.2540   23.4990   17.0830 H   0  0  0  0  0  0  0  0  0  0  0  0
    9.3670   22.4740   18.0010 H   0  0  0  0  0  0  0  0  0  0  0  0
    1.3050   17.9940   17.8830 H   0  0  0  0  0  0  0  0  0  0  0  0
    2.3560   16.7100   17.4750 H   0  0  0  0  0  0  0  0  0  0  0  0
    0.1430   17.1830   19.5460 H   0  0  0  0  0  0  0  0  0  0  0  0
    0.8420   16.5110   21.0070 H   0  0  0  0  0  0  0  0  0  0  0  0
    1.8120   18.5460   14.8570 H   0  0  0  0  0  0  0  0  0  0  0  0
    4.3440   20.4200   15.1190 H   0  0  0  0  0  0  0  0  0  0  0  0
  1  2  2  0  0  0  0
  1  3  1  0  0  0  0
  1 20  1  0  0  0  0
  2  6  1  0  0  0  0
  2 21  1  0  0  0  0
  3  4  1  0  0  0  0
  3 14  2  0  0  0  0
  4  5  2  0  0  0  0
  4 22  1  0  0  0  0
  5  9  1  0  0  0  0
  5 11  1  0  0  0  0
  6  7  1  0  0  0  0
  6  8  2  0  0  0  0
  7 23  1  0  0  0  0
  7 24  1  0  0  0  0
  7 25  1  0  0  0  0
  8 10  1  0  0  0  0
  8 14  1  0  0  0  0
  9 18  1  0  0  0  0
  9 19  2  0  0  0  0
 10 12  2  0  0  0  0
 10 13  1  0  0  0  0
 11 15  1  0  0  0  0
 11 26  1  0  0  0  0
 11 27  1  0  0  0  0
 14 19  1  0  0  0  0
 15 16  2  0  0  0  0
 15 17  1  0  0  0  0
 17 28  1  0  0  0  0
 17 29  1  0  0  0  0
 18 30  1  0  0  0  0
 19 31  1  0  0  0  0
M  CHG  1  13  -1
M  END
> <rseq>
1

> <mseq>
60

> <S>
-5.316133

> <rmsd_refine>
0.9883006

> <E_conf>
-108.7928

> <E_score1>
-8.570708

> <E_refine>
-27.0579

> <E_score2>
-5.316133

>  <$File>
outputs/pdb_4j58_cleaned.pdb_2024_06_17__22_47_40_V2_BS398_MIN1_/SDF/sdf_db.sdf

> <Rec_index>
1

>  <PLIF_raw>
[[12,12,12,2,2,2,2,2,2],[826,826,829,1651,1655,1659,1657,1653,1650],[54,54,54,112,112,112,112,112,112],[2,7,7,10,10,10,10,10,10],[4.5,5.414046691,2.12662207,0.6,0.6,0.6,0.6,0.6,0.6]]

> <FP:PLIF>
6 19 1 16 15

>  <PLIF_ligidx>
[12,12,[12,12],12,[2,2,2,2,2,2]]

$$$$
12
  MOE2022           3D

 28 28  0  0  0  0  0  0  0  0999 V2000
    5.8050   14.1680    9.1450 C   0  0  0  0  0  0  0  0  0  0  0  0
    5.7260   15.5520    9.0220 C   0  0  0  0  0  0  0  0  0  0  0  0
    4.9170   16.2820    9.8840 C   0  0  0  0  0  0  0  0  0  0  0  0
    4.1770   15.6390   10.8880 C   0  0  0  0  0  0  0  0  0  0  0  0
    5.0720   13.5150   10.1280 C   0  0  0  0  0  0  0  0  0  0  0  0
    3.3690   16.4270   11.8240 C   0  0  0  0  0  0  0  0  0  0  0  0
    3.5030   17.6410   11.9470 O   0  0  0  0  0  0  0  0  0  0  0  0
    4.2600   14.2410   10.9900 C   0  0  0  0  0  0  0  0  0  0  0  0
    2.4490   15.7630   12.6060 N   0  0  0  0  0  0  0  0  0  0  0  0
    1.7550   16.2600   13.8000 C   0  0  0  0  0  0  0  0  0  0  0  0
    0.8290   15.1350   14.2850 C   0  0  0  0  0  0  0  0  0  0  0  0
    2.7710   16.5710   14.9130 C   0  0  0  0  0  0  0  0  0  0  0  0
    0.8800   17.4880   13.4900 C   0  0  0  0  0  0  0  0  0  0  0  0
    6.4190   13.6090    8.4900 H   0  0  0  0  0  0  0  0  0  0  0  0
    6.2810   16.0490    8.2690 H   0  0  0  0  0  0  0  0  0  0  0  0
    4.8630   17.3350    9.7790 H   0  0  0  0  0  0  0  0  0  0  0  0
    5.1330   12.4610   10.2210 H   0  0  0  0  0  0  0  0  0  0  0  0
    3.7110   13.7220   11.7310 H   0  0  0  0  0  0  0  0  0  0  0  0
    2.3630   14.7470   12.4580 H   0  0  0  0  0  0  0  0  0  0  0  0
    0.3320   15.4230   15.2130 H   0  0  0  0  0  0  0  0  0  0  0  0
    0.0710   14.9250   13.5290 H   0  0  0  0  0  0  0  0  0  0  0  0
    1.4070   14.2280   14.4590 H   0  0  0  0  0  0  0  0  0  0  0  0
    3.4280   17.3860   14.6090 H   0  0  0  0  0  0  0  0  0  0  0  0
    2.2480   16.8680   15.8230 H   0  0  0  0  0  0  0  0  0  0  0  0
    3.3750   15.6890   15.1250 H   0  0  0  0  0  0  0  0  0  0  0  0
    0.2250   17.2760   12.6440 H   0  0  0  0  0  0  0  0  0  0  0  0
    0.2690   17.7380   14.3580 H   0  0  0  0  0  0  0  0  0  0  0  0
    1.4960   18.3550   13.2530 H   0  0  0  0  0  0  0  0  0  0  0  0
  1  2  2  0  0  0  0
  1  5  1  0  0  0  0
  1 14  1  0  0  0  0
  2  3  1  0  0  0  0
  2 15  1  0  0  0  0
  3  4  2  0  0  0  0
  3 16  1  0  0  0  0
  4  6  1  0  0  0  0
  4  8  1  0  0  0  0
  5  8  2  0  0  0  0
  5 17  1  0  0  0  0
  6  7  2  0  0  0  0
  6  9  1  0  0  0  0
  8 18  1  0  0  0  0
  9 10  1  0  0  0  0
  9 19  1  0  0  0  0
 10 11  1  0  0  0  0
 10 12  1  0  0  0  0
 10 13  1  0  0  0  0
 11 20  1  0  0  0  0
 11 21  1  0  0  0  0
 11 22  1  0  0  0  0
 12 23  1  0  0  0  0
 12 24  1  0  0  0  0
 12 25  1  0  0  0  0
 13 26  1  0  0  0  0
 13 27  1  0  0  0  0
 13 28  1  0  0  0  0
M  END
> <rseq>
1

> <mseq>
13

> <S>
-4.034445

> <rmsd_refine>
2.348876

> <E_conf>
-66.61362

> <E_score1>
-5.272916

> <E_refine>
-15.47169

> <E_score2>
-4.034445

>  <$File>
outputs/pdb_4j58_cleaned.pdb_2024_06_17__22_47_40_V2_BS398_MIN1_/SDF/sdf_db.sdf

> <Rec_index>
1

>  <PLIF_raw>
[[1,5,8,4,3,2],[823,823,823,823,823,823],[54,54,54,54,54,54],[10,10,10,10,10,10],[0.5,0.5,0.5,0.5,0.5,0.5]]

> <FP:PLIF>
2

>  <PLIF_ligidx>
[[1,5,8,4,3,2]]

$$$$
13
  MOE2022           3D

 27 27  0  0  0  0  0  0  0  0999 V2000
    2.2440   15.9550   20.8760 O   0  0  0  0  0  0  0  0  0  0  0  0
    2.1080   16.5310   19.7980 C   0  0  0  0  0  0  0  0  0  0  0  0
    3.0450   17.3830   19.3610 N   0  0  0  0  0  0  0  0  0  0  0  0
    0.8580   16.2980   18.9340 C   0  0  0  0  0  0  0  0  0  0  0  0
    2.9300   18.2270   18.1670 C   0  0  0  0  0  0  0  0  0  0  0  0
   -0.1060   15.2460   19.4970 C   0  0  0  0  0  0  0  0  0  0  0  0
    4.0660   19.2200   17.9590 C   0  0  0  0  0  0  0  0  0  0  0  0
    4.9640   19.5490   18.9790 C   0  0  0  0  0  0  0  0  0  0  0  0
    5.9940   20.4570   18.7350 C   0  0  0  0  0  0  0  0  0  0  0  0
    4.1940   19.8390   16.7140 C   0  0  0  0  0  0  0  0  0  0  0  0
    5.2160   20.7660   16.5010 C   0  0  0  0  0  0  0  0  0  0  0  0
    5.3110   21.3850   15.2880 O   0  0  0  0  0  0  0  0  0  0  0  0
    6.8830   20.7430   19.7320 O   0  0  0  0  0  0  0  0  0  0  0  0
    6.1340   21.0770   17.4980 C   0  0  0  0  0  0  0  0  0  0  0  0
    3.8640   17.5050   19.9360 H   0  0  0  0  0  0  0  0  0  0  0  0
    0.3230   17.2400   18.8290 H   0  0  0  0  0  0  0  0  0  0  0  0
    1.1720   15.9780   17.9400 H   0  0  0  0  0  0  0  0  0  0  0  0
    2.8530   17.5940   17.2940 H   0  0  0  0  0  0  0  0  0  0  0  0
    2.0010   18.7790   18.2070 H   0  0  0  0  0  0  0  0  0  0  0  0
   -0.9670   15.1520   18.8350 H   0  0  0  0  0  0  0  0  0  0  0  0
    0.4000   14.2830   19.5570 H   0  0  0  0  0  0  0  0  0  0  0  0
   -0.4480   15.5480   20.4880 H   0  0  0  0  0  0  0  0  0  0  0  0
    4.8650   19.1260   19.9400 H   0  0  0  0  0  0  0  0  0  0  0  0
    3.5140   19.6140   15.9340 H   0  0  0  0  0  0  0  0  0  0  0  0
    4.5270   21.1790   14.7430 H   0  0  0  0  0  0  0  0  0  0  0  0
    6.7640   20.1340   20.4860 H   0  0  0  0  0  0  0  0  0  0  0  0
    6.9150   21.7720   17.3230 H   0  0  0  0  0  0  0  0  0  0  0  0
  1  2  2  0  0  0  0
  2  3  1  0  0  0  0
  2  4  1  0  0  0  0
  3  5  1  0  0  0  0
  3 15  1  0  0  0  0
  4  6  1  0  0  0  0
  4 16  1  0  0  0  0
  4 17  1  0  0  0  0
  5  7  1  0  0  0  0
  5 18  1  0  0  0  0
  5 19  1  0  0  0  0
  6 20  1  0  0  0  0
  6 21  1  0  0  0  0
  6 22  1  0  0  0  0
  7  8  2  0  0  0  0
  7 10  1  0  0  0  0
  8  9  1  0  0  0  0
  8 23  1  0  0  0  0
  9 13  1  0  0  0  0
  9 14  2  0  0  0  0
 10 11  2  0  0  0  0
 10 24  1  0  0  0  0
 11 12  1  0  0  0  0
 11 14  1  0  0  0  0
 12 25  1  0  0  0  0
 13 26  1  0  0  0  0
 14 27  1  0  0  0  0
M  END
> <rseq>
1

> <mseq>
14

> <S>
-4.790481

> <rmsd_refine>
1.086592

> <E_conf>
-63.47213

> <E_score1>
-5.716341

> <E_refine>
-18.9112

> <E_score2>
-4.790481

>  <$File>
outputs/pdb_4j58_cleaned.pdb_2024_06_17__22_47_40_V2_BS398_MIN1_/SDF/sdf_db.sdf

> <Rec_index>
1

>  <PLIF_raw>
[[],[],[],[],[]]

>  <PLIF_ligidx>
[]

$$$$
14
  MOE2022           3D

 24 24  0  0  0  0  0  0  0  0999 V2000
    2.6390   16.3840   21.0470 O   0  5  0  0  0  0  0  0  0  0  0  0
    1.8550   15.9650   20.1680 C   0  0  0  0  0  0  0  0  0  0  0  0
    2.1250   16.3780   18.7120 C   0  0  0  0  0  0  0  0  0  0  0  0
    2.6120   17.7540   18.5660 N   0  0  0  0  0  0  0  0  0  0  0  0
    3.2010   18.2350   17.4600 C   0  0  0  0  0  0  0  0  0  0  0  0
    0.8800   15.2080   20.3860 O   0  0  0  0  0  0  0  0  0  0  0  0
    3.4560   17.5210   16.4900 O   0  0  0  0  0  0  0  0  0  0  0  0
    3.5630   19.7080   17.4620 C   0  0  0  0  0  0  0  0  0  0  0  0
    5.0030   20.0010   17.8500 C   0  0  0  0  0  0  0  0  0  0  0  0
    5.4570   19.7270   19.1400 C   0  0  0  0  0  0  0  0  0  0  0  0
    5.8860   20.5530   16.9220 C   0  0  0  0  0  0  0  0  0  0  0  0
    7.2080   20.8130   17.2730 C   0  0  0  0  0  0  0  0  0  0  0  0
    7.6550   20.5320   18.5590 C   0  0  0  0  0  0  0  0  0  0  0  0
    6.7770   19.9930   19.4930 C   0  0  0  0  0  0  0  0  0  0  0  0
    2.8590   15.6930   18.2920 H   0  0  0  0  0  0  0  0  0  0  0  0
    1.2010   16.2720   18.1440 H   0  0  0  0  0  0  0  0  0  0  0  0
    2.4650   18.3730   19.3530 H   0  0  0  0  0  0  0  0  0  0  0  0
    3.3670   20.1070   16.4760 H   0  0  0  0  0  0  0  0  0  0  0  0
    2.9000   20.2570   18.1130 H   0  0  0  0  0  0  0  0  0  0  0  0
    4.7950   19.3110   19.8540 H   0  0  0  0  0  0  0  0  0  0  0  0
    5.5520   20.7760   15.9420 H   0  0  0  0  0  0  0  0  0  0  0  0
    7.8760   21.2270   16.5610 H   0  0  0  0  0  0  0  0  0  0  0  0
    8.6620   20.7280   18.8270 H   0  0  0  0  0  0  0  0  0  0  0  0
    7.1170   19.7840   20.4720 H   0  0  0  0  0  0  0  0  0  0  0  0
  1  2  1  0  0  0  0
  2  3  1  0  0  0  0
  2  6  2  0  0  0  0
  3  4  1  0  0  0  0
  3 15  1  0  0  0  0
  3 16  1  0  0  0  0
  4  5  1  0  0  0  0
  4 17  1  0  0  0  0
  5  7  2  0  0  0  0
  5  8  1  0  0  0  0
  8  9  1  0  0  0  0
  8 18  1  0  0  0  0
  8 19  1  0  0  0  0
  9 10  1  0  0  0  0
  9 11  2  0  0  0  0
 10 14  2  0  0  0  0
 10 20  1  0  0  0  0
 11 12  1  0  0  0  0
 11 21  1  0  0  0  0
 12 13  2  0  0  0  0
 12 22  1  0  0  0  0
 13 14  1  0  0  0  0
 13 23  1  0  0  0  0
 14 24  1  0  0  0  0
M  CHG  1   1  -1
M  END
> <rseq>
1

> <mseq>
15

> <S>
-5.018883

> <rmsd_refine>
1.25119

> <E_conf>
-59.55021

> <E_score1>
-6.286286

> <E_refine>
-28.82651

> <E_score2>
-5.018883

>  <$File>
outputs/pdb_4j58_cleaned.pdb_2024_06_17__22_47_40_V2_BS398_MIN1_/SDF/sdf_db.sdf

> <Rec_index>
1

>  <PLIF_raw>
[[4,6,7,6,6],[1504,1212,954,1206,1212],[101,81,62,81,81],[3,2,2,7,7],[0.9,5.5,0.9,1.337424005,3.622422869]]

> <FP:PLIF>
20 17 18 24 25 8

>  <PLIF_ligidx>
[7,6,6,[6,6],6,4]

$$$$
15
  MOE2022           3D

 27 27  0  0  0  0  0  0  0  0999 V2000
    3.1000   18.0490   17.6090 C   0  0  0  0  0  0  0  0  0  0  0  0
    2.3110   16.9360   17.3370 C   0  0  0  0  0  0  0  0  0  0  0  0
    3.7700   18.6850   16.5600 C   0  0  0  0  0  0  0  0  0  0  0  0
    4.5790   19.7870   16.7630 O   0  0  0  0  0  0  0  0  0  0  0  0
    3.6420   18.2230   15.2520 C   0  0  0  0  0  0  0  0  0  0  0  0
    2.1840   16.4690   16.0300 C   0  0  0  0  0  0  0  0  0  0  0  0
    2.8510   17.1110   14.9900 C   0  0  0  0  0  0  0  0  0  0  0  0
    4.6440   20.5770   17.9800 C   0  0  0  0  0  0  0  0  0  0  0  0
    5.6200   20.0050   19.0210 C   0  0  0  0  0  0  0  0  0  0  0  0
    7.1050   20.1550   18.6450 C   0  0  0  0  0  0  0  0  0  0  0  0
    7.7460   21.4690   19.1250 C   0  0  0  0  0  0  0  0  0  0  0  0
    7.1410   22.7200   18.4970 C   0  0  0  0  0  0  0  0  0  0  0  0
    7.5840   23.0760   17.3840 O   0  5  0  0  0  0  0  0  0  0  0  0
    6.2380   23.2960   19.1450 O   0  0  0  0  0  0  0  0  0  0  0  0
    3.1860   18.3990   18.6040 H   0  0  0  0  0  0  0  0  0  0  0  0
    1.8010   16.4430   18.1250 H   0  0  0  0  0  0  0  0  0  0  0  0
    4.1370   18.7220   14.4610 H   0  0  0  0  0  0  0  0  0  0  0  0
    1.5740   15.6280   15.8250 H   0  0  0  0  0  0  0  0  0  0  0  0
    2.7480   16.7550   13.9980 H   0  0  0  0  0  0  0  0  0  0  0  0
    4.9420   21.5880   17.7090 H   0  0  0  0  0  0  0  0  0  0  0  0
    3.6460   20.6350   18.4120 H   0  0  0  0  0  0  0  0  0  0  0  0
    5.4410   20.4900   19.9810 H   0  0  0  0  0  0  0  0  0  0  0  0
    5.3990   18.9470   19.1410 H   0  0  0  0  0  0  0  0  0  0  0  0
    7.6560   19.3390   19.1140 H   0  0  0  0  0  0  0  0  0  0  0  0
    7.2290   20.0600   17.5650 H   0  0  0  0  0  0  0  0  0  0  0  0
    7.6470   21.5390   20.2080 H   0  0  0  0  0  0  0  0  0  0  0  0
    8.8110   21.4450   18.8890 H   0  0  0  0  0  0  0  0  0  0  0  0
  1  2  1  0  0  0  0
  1  3  2  0  0  0  0
  1 15  1  0  0  0  0
  2  6  2  0  0  0  0
  2 16  1  0  0  0  0
  3  4  1  0  0  0  0
  3  5  1  0  0  0  0
  4  8  1  0  0  0  0
  5  7  2  0  0  0  0
  5 17  1  0  0  0  0
  6  7  1  0  0  0  0
  6 18  1  0  0  0  0
  7 19  1  0  0  0  0
  8  9  1  0  0  0  0
  8 20  1  0  0  0  0
  8 21  1  0  0  0  0
  9 10  1  0  0  0  0
  9 22  1  0  0  0  0
  9 23  1  0  0  0  0
 10 11  1  0  0  0  0
 10 24  1  0  0  0  0
 10 25  1  0  0  0  0
 11 12  1  0  0  0  0
 11 26  1  0  0  0  0
 11 27  1  0  0  0  0
 12 13  1  0  0  0  0
 12 14  2  0  0  0  0
M  CHG  1  13  -1
M  END
> <rseq>
1

> <mseq>
16

> <S>
-4.768666

> <rmsd_refine>
2.756932

> <E_conf>
-98.65453

> <E_score1>
-7.331279

> <E_refine>
-22.22799

> <E_score2>
-4.768666

>  <$File>
outputs/pdb_4j58_cleaned.pdb_2024_06_17__22_47_40_V2_BS398_MIN1_/SDF/sdf_db.sdf

> <Rec_index>
1

>  <PLIF_raw>
[14,1872,125,7,4.325065206]

> <FP:PLIF>
13 31

>  <PLIF_ligidx>
[14,14]

$$$$
16
  MOE2022           3D

 30 29  0  0  0  0  0  0  0  0999 V2000
    7.0800   20.7410   19.6370 C   0  0  0  0  0  0  0  0  0  0  0  0
    6.2060   20.9900   18.3910 C   0  0  0  0  0  0  0  0  0  0  0  0
    5.1370   19.9040   18.3300 C   0  0  0  0  0  0  0  0  0  0  0  0
    5.5140   22.3590   18.5130 C   0  0  0  0  0  0  0  0  0  0  0  0
    4.6050   19.3860   17.1990 C   0  0  0  0  0  0  0  0  0  0  0  0
    3.6150   18.3150   17.1840 C   0  0  0  0  0  0  0  0  0  0  0  0
    2.9570   18.0240   18.3480 N   0  0  0  0  0  0  0  0  0  0  0  0
    3.3910   17.6440   16.1810 O   0  0  0  0  0  0  0  0  0  0  0  0
    2.2560   16.7720   18.6230 C   0  0  0  0  0  0  0  0  0  0  0  0
    7.1250   20.9870   17.1510 C   0  0  0  0  0  0  0  0  0  0  0  0
    1.7720   16.7400   20.0730 C   0  0  0  0  0  0  0  0  0  0  0  0
    1.3050   15.3770   20.5570 C   0  0  0  0  0  0  0  0  0  0  0  0
    1.7500   14.9900   21.6600 O   0  5  0  0  0  0  0  0  0  0  0  0
    0.4710   14.7590   19.8630 O   0  0  0  0  0  0  0  0  0  0  0  0
    7.5840   19.7760   19.5660 H   0  0  0  0  0  0  0  0  0  0  0  0
    7.8440   21.5130   19.7390 H   0  0  0  0  0  0  0  0  0  0  0  0
    6.4790   20.7370   20.5460 H   0  0  0  0  0  0  0  0  0  0  0  0
    4.8150   19.5630   19.2800 H   0  0  0  0  0  0  0  0  0  0  0  0
    4.9210   22.5700   17.6210 H   0  0  0  0  0  0  0  0  0  0  0  0
    4.8400   22.3780   19.3690 H   0  0  0  0  0  0  0  0  0  0  0  0
    6.2460   23.1590   18.6310 H   0  0  0  0  0  0  0  0  0  0  0  0
    4.9150   19.7210   16.2450 H   0  0  0  0  0  0  0  0  0  0  0  0
    3.1190   18.6380   19.1610 H   0  0  0  0  0  0  0  0  0  0  0  0
    1.4010   16.6620   17.9540 H   0  0  0  0  0  0  0  0  0  0  0  0
    2.9340   15.9350   18.4570 H   0  0  0  0  0  0  0  0  0  0  0  0
    6.5740   21.2420   16.2450 H   0  0  0  0  0  0  0  0  0  0  0  0
    7.9240   21.7220   17.2620 H   0  0  0  0  0  0  0  0  0  0  0  0
    7.5890   20.0110   17.0140 H   0  0  0  0  0  0  0  0  0  0  0  0
    2.5900   17.0620   20.7170 H   0  0  0  0  0  0  0  0  0  0  0  0
    0.9410   17.4320   20.1740 H   0  0  0  0  0  0  0  0  0  0  0  0
  1  2  1  0  0  0  0
  1 15  1  0  0  0  0
  1 16  1  0  0  0  0
  1 17  1  0  0  0  0
  2  3  1  0  0  0  0
  2  4  1  0  0  0  0
  2 10  1  0  0  0  0
  3  5  2  0  0  0  0
  3 18  1  0  0  0  0
  4 19  1  0  0  0  0
  4 20  1  0  0  0  0
  4 21  1  0  0  0  0
  5  6  1  0  0  0  0
  5 22  1  0  0  0  0
  6  7  1  0  0  0  0
  6  8  2  0  0  0  0
  7  9  1  0  0  0  0
  7 23  1  0  0  0  0
  9 11  1  0  0  0  0
  9 24  1  0  0  0  0
  9 25  1  0  0  0  0
 10 26  1  0  0  0  0
 10 27  1  0  0  0  0
 10 28  1  0  0  0  0
 11 12  1  0  0  0  0
 11 29  1  0  0  0  0
 11 30  1  0  0  0  0
 12 13  1  0  0  0  0
 12 14  2  0  0  0  0
M  CHG  1  13  -1
M  END
> <rseq>
1

> <mseq>
17

> <S>
-5.260969

> <rmsd_refine>
0.8434896

> <E_conf>
-187.5385

> <E_score1>
-6.967121

> <E_refine>
-28.80746

> <E_score2>
-5.260969

>  <$File>
outputs/pdb_4j58_cleaned.pdb_2024_06_17__22_47_40_V2_BS398_MIN1_/SDF/sdf_db.sdf

> <Rec_index>
1

>  <PLIF_raw>
[[7,13,14,13,13,14,14],[1504,1212,1212,1206,1212,1206,1212],[101,81,81,81,81,81,81],[3,2,2,7,7,7,7],[0.9,1.1,8.4,3.811130766,4.523295599,0.7213418951,4.566490171]]

> <FP:PLIF>
17 18 24 25 8

>  <PLIF_ligidx>
[[13,14],14,[13,13,14,14],[13,13,14],7]

$$$$
17
  MOE2022           3D

 26 26  0  0  0  0  0  0  0  0999 V2000
    8.6280   21.0190   18.4180 C   0  0  0  0  0  0  0  0  0  0  0  0
    8.4620   22.1930   17.6920 C   0  0  0  0  0  0  0  0  0  0  0  0
    7.5290   20.2170   18.7050 C   0  0  0  0  0  0  0  0  0  0  0  0
    6.2540   20.5860   18.2740 C   0  0  0  0  0  0  0  0  0  0  0  0
    6.0930   21.7750   17.5630 C   0  0  0  0  0  0  0  0  0  0  0  0
    5.0570   19.7110   18.6040 C   0  0  0  0  0  0  0  0  0  0  0  0
    4.2490   19.1830   17.4220 C   0  0  0  0  0  0  0  0  0  0  0  0
    3.2130   18.2750   17.5700 N   0  0  0  0  0  0  0  0  0  0  0  0
    7.1940   22.5740   17.2680 C   0  0  0  0  0  0  0  0  0  0  0  0
    4.4570   19.5530   16.2840 O   0  0  0  0  0  0  0  0  0  0  0  0
    2.8280   17.5600   18.7000 C   0  0  0  0  0  0  0  0  0  0  0  0
    1.6890   16.8280   18.5110 N   0  0  0  0  0  0  0  0  0  0  0  0
    1.0840   16.0290   19.5700 C   0  0  0  0  0  0  0  0  0  0  0  0
    3.4510   17.5530   19.7580 O   0  0  0  0  0  0  0  0  0  0  0  0
    9.5920   20.7350   18.7520 H   0  0  0  0  0  0  0  0  0  0  0  0
    9.3010   22.7950   17.4630 H   0  0  0  0  0  0  0  0  0  0  0  0
    7.6690   19.3230   19.2560 H   0  0  0  0  0  0  0  0  0  0  0  0
    5.1290   22.0740   17.2390 H   0  0  0  0  0  0  0  0  0  0  0  0
    5.4000   18.8840   19.2010 H   0  0  0  0  0  0  0  0  0  0  0  0
    4.4010   20.2630   19.2570 H   0  0  0  0  0  0  0  0  0  0  0  0
    2.6580   18.0990   16.7200 H   0  0  0  0  0  0  0  0  0  0  0  0
    7.0660   23.4720   16.7210 H   0  0  0  0  0  0  0  0  0  0  0  0
    1.1710   16.9260   17.6250 H   0  0  0  0  0  0  0  0  0  0  0  0
    0.4540   16.6500   20.2080 H   0  0  0  0  0  0  0  0  0  0  0  0
    0.4660   15.2370   19.1460 H   0  0  0  0  0  0  0  0  0  0  0  0
    1.8450   15.5600   20.1950 H   0  0  0  0  0  0  0  0  0  0  0  0
  1  2  1  0  0  0  0
  1  3  2  0  0  0  0
  1 15  1  0  0  0  0
  2  9  2  0  0  0  0
  2 16  1  0  0  0  0
  3  4  1  0  0  0  0
  3 17  1  0  0  0  0
  4  5  2  0  0  0  0
  4  6  1  0  0  0  0
  5  9  1  0  0  0  0
  5 18  1  0  0  0  0
  6  7  1  0  0  0  0
  6 19  1  0  0  0  0
  6 20  1  0  0  0  0
  7  8  1  0  0  0  0
  7 10  2  0  0  0  0
  8 11  1  0  0  0  0
  8 21  1  0  0  0  0
  9 22  1  0  0  0  0
 11 12  1  0  0  0  0
 11 14  2  0  0  0  0
 12 13  1  0  0  0  0
 12 23  1  0  0  0  0
 13 24  1  0  0  0  0
 13 25  1  0  0  0  0
 13 26  1  0  0  0  0
M  END
> <rseq>
1

> <mseq>
18

> <S>
-4.949652

> <rmsd_refine>
0.884268

> <E_conf>
-111.5656

> <E_score1>
-5.603143

> <E_refine>
-20.32564

> <E_score2>
-4.949652

>  <$File>
outputs/pdb_4j58_cleaned.pdb_2024_06_17__22_47_40_V2_BS398_MIN1_/SDF/sdf_db.sdf

> <Rec_index>
1

>  <PLIF_raw>
[[],[],[],[],[]]

>  <PLIF_ligidx>
[]

$$$$
18
  MOE2022           3D

 22 22  0  0  0  0  0  0  0  0999 V2000
    5.5900   14.4310   10.0650 C   0  0  0  0  0  0  0  0  0  0  0  0
    5.5130   15.7690    9.6980 C   0  0  0  0  0  0  0  0  0  0  0  0
    4.4380   16.5330   10.1470 C   0  0  0  0  0  0  0  0  0  0  0  0
    4.6040   13.8680   10.8720 C   0  0  0  0  0  0  0  0  0  0  0  0
    3.5320   14.6420   11.3440 C   0  0  0  0  0  0  0  0  0  0  0  0
    4.3490   17.8430    9.7830 O   0  0  0  0  0  0  0  0  0  0  0  0
    3.4490   15.9860   10.9580 C   0  0  0  0  0  0  0  0  0  0  0  0
    2.5100   14.0420   12.2070 C   0  0  0  0  0  0  0  0  0  0  0  0
    2.1890   14.6040   13.4210 N   0  0  0  0  0  0  0  0  0  0  0  0
    1.9110   13.0180   11.8980 O   0  0  0  0  0  0  0  0  0  0  0  0
    3.0470   15.5670   14.1260 C   0  0  0  0  0  0  0  0  0  0  0  0
    2.5080   16.1240   15.4270 C   0  0  0  0  0  0  0  0  0  0  0  0
    3.2600   16.0490   16.4250 O   0  5  0  0  0  0  0  0  0  0  0  0
    1.3790   16.6610   15.4160 O   0  0  0  0  0  0  0  0  0  0  0  0
    6.3990   13.8350    9.7270 H   0  0  0  0  0  0  0  0  0  0  0  0
    6.2560   16.1990    9.0770 H   0  0  0  0  0  0  0  0  0  0  0  0
    4.6670   12.8430   11.1280 H   0  0  0  0  0  0  0  0  0  0  0  0
    4.3570   18.7710    9.4770 H   0  0  0  0  0  0  0  0  0  0  0  0
    2.6350   16.5840   11.2790 H   0  0  0  0  0  0  0  0  0  0  0  0
    1.4600   14.1420   13.9870 H   0  0  0  0  0  0  0  0  0  0  0  0
    3.9870   15.0840   14.3350 H   0  0  0  0  0  0  0  0  0  0  0  0
    3.2670   16.4050   13.4820 H   0  0  0  0  0  0  0  0  0  0  0  0
  1  2  2  0  0  0  0
  1  4  1  0  0  0  0
  1 15  1  0  0  0  0
  2  3  1  0  0  0  0
  2 16  1  0  0  0  0
  3  6  1  0  0  0  0
  3  7  2  0  0  0  0
  4  5  2  0  0  0  0
  4 17  1  0  0  0  0
  5  7  1  0  0  0  0
  5  8  1  0  0  0  0
  6 18  1  0  0  0  0
  7 19  1  0  0  0  0
  8  9  1  0  0  0  0
  8 10  2  0  0  0  0
  9 11  1  0  0  0  0
  9 20  1  0  0  0  0
 11 12  1  0  0  0  0
 11 21  1  0  0  0  0
 11 22  1  0  0  0  0
 12 13  1  0  0  0  0
 12 14  2  0  0  0  0
M  CHG  1  13  -1
M  END
> <rseq>
1

> <mseq>
19

> <S>
-4.203606

> <rmsd_refine>
0.9771343

> <E_conf>
-31.92021

> <E_score1>
-7.560858

> <E_refine>
-17.3097

> <E_score2>
-4.203606

>  <$File>
outputs/pdb_4j58_cleaned.pdb_2024_06_17__22_47_40_V2_BS398_MIN1_/SDF/sdf_db.sdf

> <Rec_index>
1

>  <PLIF_raw>
[[13,1,4,5,7,3,2],[954,820,820,820,820,820,820],[62,54,54,54,54,54,54],[2,10,10,10,10,10,10],[2.5,0.6,0.6,0.6,0.6,0.6,0.6]]

> <FP:PLIF>
2 20 23

>  <PLIF_ligidx>
[[1,4,5,7,3,2],13,13]

$$$$
19
  MOE2022           3D

 30 31  0  0  1  0  0  0  0  0999 V2000
    7.5540   21.5840   19.3470 C   0  0  0  0  0  0  0  0  0  0  0  0
    7.0930   22.6230   18.5450 C   0  0  0  0  0  0  0  0  0  0  0  0
    6.7170   20.5170   19.6550 C   0  0  0  0  0  0  0  0  0  0  0  0
    5.7930   22.5940   18.0480 C   0  0  0  0  0  0  0  0  0  0  0  0
    5.2620   23.6950   17.1590 C   0  0  0  0  0  0  0  0  0  0  0  0
    5.4180   20.4840   19.1560 C   0  0  0  0  0  0  0  0  0  0  0  0
    4.9550   21.5220   18.3480 C   0  0  0  0  0  0  0  0  0  0  0  0
    3.5670   21.5090   17.7420 C   0  0  1  0  0  0  0  0  0  0  0  0
    2.9010   22.9120   17.7650 C   0  0  2  0  0  0  0  0  0  0  0  0
    3.6610   21.0440   16.3810 O   0  0  0  0  0  0  0  0  0  0  0  0
    3.8330   24.0890   17.4450 N   0  3  2  0  0  0  0  0  0  0  0  0
    3.2660   25.0020   16.3980 C   0  0  0  0  0  0  0  0  0  0  0  0
    2.1100   23.1350   19.0670 C   0  0  0  0  0  0  0  0  0  0  0  0
    2.9480   23.4690   20.1570 O   0  0  0  0  0  0  0  0  0  0  0  0
    8.5470   21.6030   19.7150 H   0  0  0  0  0  0  0  0  0  0  0  0
    7.7380   23.4280   18.3080 H   0  0  0  0  0  0  0  0  0  0  0  0
    7.0730   19.7260   20.2620 H   0  0  0  0  0  0  0  0  0  0  0  0
    5.9260   24.5470   17.2280 H   0  0  0  0  0  0  0  0  0  0  0  0
    5.3710   23.3640   16.1340 H   0  0  0  0  0  0  0  0  0  0  0  0
    4.7870   19.6630   19.3840 H   0  0  0  0  0  0  0  0  0  0  0  0
    2.9340   20.7990   18.2550 H   0  0  0  0  0  0  0  0  0  0  0  0
    2.1430   22.8510   16.9950 H   0  0  0  0  0  0  0  0  0  0  0  0
    4.0370   20.1490   16.3660 H   0  0  0  0  0  0  0  0  0  0  0  0
    3.8710   24.6180   18.3050 H   0  0  0  0  0  0  0  0  0  0  0  0
    3.1710   24.5250   15.4320 H   0  0  0  0  0  0  0  0  0  0  0  0
    2.2780   25.3650   16.6460 H   0  0  0  0  0  0  0  0  0  0  0  0
    3.8710   25.8840   16.2330 H   0  0  0  0  0  0  0  0  0  0  0  0
    1.4000   23.9500   18.9210 H   0  0  0  0  0  0  0  0  0  0  0  0
    1.5380   22.2410   19.3100 H   0  0  0  0  0  0  0  0  0  0  0  0
    2.4340   23.4030   20.9690 H   0  0  0  0  0  0  0  0  0  0  0  0
  1  2  1  0  0  0  0
  1  3  2  0  0  0  0
  1 15  1  0  0  0  0
  2  4  2  0  0  0  0
  2 16  1  0  0  0  0
  3  6  1  0  0  0  0
  3 17  1  0  0  0  0
  4  5  1  0  0  0  0
  4  7  1  0  0  0  0
  5 11  1  0  0  0  0
  5 18  1  0  0  0  0
  5 19  1  0  0  0  0
  6  7  2  0  0  0  0
  6 20  1  0  0  0  0
  7  8  1  0  0  0  0
  8  9  1  0  0  0  0
  8 10  1  0  0  0  0
  8 21  1  0  0  0  0
  9 11  1  0  0  0  0
  9 13  1  0  0  0  0
  9 22  1  0  0  0  0
 10 23  1  0  0  0  0
 11 12  1  0  0  0  0
 11 24  1  0  0  0  0
 12 25  1  0  0  0  0
 12 26  1  0  0  0  0
 12 27  1  0  0  0  0
 13 14  1  0  0  0  0
 13 28  1  0  0  0  0
 13 29  1  0  0  0  0
 14 30  1  0  0  0  0
M  CHG  1  11   1
M  END
> <rseq>
1

> <mseq>
20

> <S>
-4.219476

> <rmsd_refine>
1.636148

> <E_conf>
68.0248

> <E_score1>
-5.103354

> <E_refine>
-18.30451

> <E_score2>
-4.219476

>  <$File>
outputs/pdb_4j58_cleaned.pdb_2024_06_17__22_47_40_V2_BS398_MIN1_/SDF/sdf_db.sdf

> <Rec_index>
1

>  <PLIF_raw>
[14,1509,101,1,0.8]

> <FP:PLIF>
32

>  <PLIF_ligidx>
14

$$$$
20
  MOE2022           3D

 23 22  0  0  1  0  0  0  0  0999 V2000
    5.8550   20.4630   20.3860 O   0  0  0  0  0  0  0  0  0  0  0  0
    6.5090   20.0480   19.4030 C   0  0  0  0  0  0  0  0  0  0  0  0
    7.5980   19.4380   19.4810 O   0  5  0  0  0  0  0  0  0  0  0  0
    5.9390   20.3020   17.9970 C   0  0  1  0  0  0  0  0  0  0  0  0
    4.4820   20.1590   17.9880 N   0  0  0  0  0  0  0  0  0  0  0  0
    6.3240   21.6970   17.4770 C   0  0  0  0  0  0  0  0  0  0  0  0
    3.7740   19.3810   17.1600 C   0  0  0  0  0  0  0  0  0  0  0  0
    2.2790   19.5940   17.1960 C   0  0  0  0  0  0  0  0  0  0  0  0
    4.2880   18.5580   16.4030 O   0  0  0  0  0  0  0  0  0  0  0  0
    1.6820   19.7740   15.8210 C   0  0  0  0  0  0  0  0  0  0  0  0
    2.0700   20.8480   15.1330 N   0  0  0  0  0  0  0  0  0  0  0  0
    0.9060   18.9560   15.3320 O   0  0  0  0  0  0  0  0  0  0  0  0
    5.9450   21.9040   16.0110 C   0  0  0  0  0  0  0  0  0  0  0  0
    4.7860   22.3090   15.7680 O   0  5  0  0  0  0  0  0  0  0  0  0
    6.8240   21.6720   15.1500 O   0  0  0  0  0  0  0  0  0  0  0  0
    6.3820   19.5750   17.3230 H   0  0  0  0  0  0  0  0  0  0  0  0
    3.9800   20.7660   18.6190 H   0  0  0  0  0  0  0  0  0  0  0  0
    5.8380   22.4600   18.0860 H   0  0  0  0  0  0  0  0  0  0  0  0
    7.4030   21.8220   17.5760 H   0  0  0  0  0  0  0  0  0  0  0  0
    1.8130   18.7550   17.6940 H   0  0  0  0  0  0  0  0  0  0  0  0
    2.0430   20.4620   17.7980 H   0  0  0  0  0  0  0  0  0  0  0  0
    1.7110   20.9990   14.2040 H   0  0  0  0  0  0  0  0  0  0  0  0
    2.7720   21.4710   15.5150 H   0  0  0  0  0  0  0  0  0  0  0  0
  1  2  2  0  0  0  0
  2  3  1  0  0  0  0
  2  4  1  0  0  0  0
  4  5  1  0  0  0  0
  4  6  1  0  0  0  0
  4 16  1  0  0  0  0
  5  7  1  0  0  0  0
  5 17  1  0  0  0  0
  6 13  1  0  0  0  0
  6 18  1  0  0  0  0
  6 19  1  0  0  0  0
  7  8  1  0  0  0  0
  7  9  2  0  0  0  0
  8 10  1  0  0  0  0
  8 20  1  0  0  0  0
  8 21  1  0  0  0  0
 10 11  1  0  0  0  0
 10 12  2  0  0  0  0
 11 22  1  0  0  0  0
 11 23  1  0  0  0  0
 13 14  1  0  0  0  0
 13 15  2  0  0  0  0
M  CHG  1   3  -1
M  CHG  1  14  -1
M  END
> <rseq>
1

> <mseq>
21

> <S>
-4.019208

> <rmsd_refine>
3.035022

> <E_conf>
-262.7695

> <E_score1>
-6.742016

> <E_refine>
-24.44287

> <E_score2>
-4.019208

>  <$File>
outputs/pdb_4j58_cleaned.pdb_2024_06_17__22_47_40_V2_BS398_MIN1_/SDF/sdf_db.sdf

> <Rec_index>
1

>  <PLIF_raw>
[[1,1,9,15,1,1,15,15],[1491,1499,954,826,1866,1872,826,829],[100,101,62,54,125,125,54,54],[4,4,2,2,7,7,7,7],[0.5,1.2,0.6,3.9,1.550911939,0.7958724512,5.031042445,0.7781864808]]

> <FP:PLIF>
6 19 1 16 20 9 11 13

>  <PLIF_ligidx>
[15,15,[15,15],15,9,1,1,[1,1]]

$$$$
21
  MOE2022           3D

 28 28  0  0  1  0  0  0  0  0999 V2000
    4.5540   21.0030   17.7570 C   0  0  0  0  0  0  0  0  0  0  0  0
    3.9260   19.7620   17.7120 C   0  0  0  0  0  0  0  0  0  0  0  0
    3.8290   22.1600   17.4940 C   0  0  0  0  0  0  0  0  0  0  0  0
    2.5680   19.6690   17.4010 C   0  0  0  0  0  0  0  0  0  0  0  0
    1.8480   20.8330   17.1360 C   0  0  0  0  0  0  0  0  0  0  0  0
    2.4750   22.0740   17.1830 C   0  0  0  0  0  0  0  0  0  0  0  0
    1.8650   18.3260   17.3780 C   0  0  2  0  0  0  0  0  0  0  0  0
    1.8000   17.7170   18.7610 N   0  3  0  0  0  0  0  0  0  0  0  0
    2.4130   17.4150   16.2840 C   0  0  0  0  0  0  0  0  0  0  0  0
    1.3170   16.3210   18.8320 C   0  0  0  0  0  0  0  0  0  0  0  0
    1.2610   15.6830   20.2320 C   0  0  0  0  0  0  0  0  0  0  0  0
    2.4900   15.8660   20.9440 O   0  0  0  0  0  0  0  0  0  0  0  0
    1.6760   17.2010   15.2990 O   0  0  0  0  0  0  0  0  0  0  0  0
    0.2130   16.2380   21.0360 O   0  0  0  0  0  0  0  0  0  0  0  0
    3.5180   16.8590   16.4750 O   0  5  0  0  0  0  0  0  0  0  0  0
    5.5850   21.0660   17.9930 H   0  0  0  0  0  0  0  0  0  0  0  0
    4.4880   18.8880   17.9190 H   0  0  0  0  0  0  0  0  0  0  0  0
    4.3060   23.1050   17.5280 H   0  0  0  0  0  0  0  0  0  0  0  0
    0.8160   20.7780   16.9010 H   0  0  0  0  0  0  0  0  0  0  0  0
    1.9210   22.9550   16.9810 H   0  0  0  0  0  0  0  0  0  0  0  0
    0.8540   18.5410   17.0590 H   0  0  0  0  0  0  0  0  0  0  0  0
    2.7340   17.7450   19.1430 H   0  0  0  0  0  0  0  0  0  0  0  0
    1.2160   18.3090   19.3340 H   0  0  0  0  0  0  0  0  0  0  0  0
    0.3250   16.2780   18.3810 H   0  0  0  0  0  0  0  0  0  0  0  0
    1.9800   15.7190   18.2090 H   0  0  0  0  0  0  0  0  0  0  0  0
    1.0760   14.6210   20.1370 H   0  0  0  0  0  0  0  0  0  0  0  0
    3.2160   15.4210   20.4720 H   0  0  0  0  0  0  0  0  0  0  0  0
    0.4200   17.1580   21.2640 H   0  0  0  0  0  0  0  0  0  0  0  0
  1  2  1  0  0  0  0
  1  3  2  0  0  0  0
  1 16  1  0  0  0  0
  2  4  2  0  0  0  0
  2 17  1  0  0  0  0
  3  6  1  0  0  0  0
  3 18  1  0  0  0  0
  4  5  1  0  0  0  0
  4  7  1  0  0  0  0
  5  6  2  0  0  0  0
  5 19  1  0  0  0  0
  6 20  1  0  0  0  0
  7  8  1  0  0  0  0
  7  9  1  0  0  0  0
  7 21  1  0  0  0  0
  8 10  1  0  0  0  0
  8 22  1  0  0  0  0
  8 23  1  0  0  0  0
  9 13  2  0  0  0  0
  9 15  1  0  0  0  0
 10 11  1  0  0  0  0
 10 24  1  0  0  0  0
 10 25  1  0  0  0  0
 11 12  1  0  0  0  0
 11 14  1  0  0  0  0
 11 26  1  0  0  0  0
 12 27  1  0  0  0  0
 14 28  1  0  0  0  0
M  CHG  1   8   1
M  CHG  1  15  -1
M  END
> <rseq>
1

> <mseq>
22

> <S>
-4.246614

> <rmsd_refine>
3.30538

> <E_conf>
21.01098

> <E_score1>
-7.671544

> <E_refine>
-20.98665

> <E_score2>
-4.246614

>  <$File>
outputs/pdb_4j58_cleaned.pdb_2024_06_17__22_47_40_V2_BS398_MIN1_/SDF/sdf_db.sdf

> <Rec_index>
1

>  <PLIF_raw>
[[10,12,14,15,1,2,4,5,6,3],[1071,1617,1206,954,1515,1515,1515,1515,1515,1515],[71,110,81,62,102,102,102,102,102,102],[3,1,2,2,10,10,10,10,10,10],[0.5,0.7,0.8,5.9,0.5,0.5,0.5,0.5,0.5,0.5]]

> <FP:PLIF>
20 23 7 17 22 26

>  <PLIF_ligidx>
[15,15,10,14,[1,2,4,5,6,3],12]

$$$$
22
  MOE2022           3D

 27 28  0  0  0  0  0  0  0  0999 V2000
    6.8740   20.8030   19.8680 C   0  0  0  0  0  0  0  0  0  0  0  0
    5.7670   20.0650   19.4730 C   0  0  0  0  0  0  0  0  0  0  0  0
    7.6480   21.4630   18.9220 C   0  0  0  0  0  0  0  0  0  0  0  0
    7.3070   21.3960   17.5730 C   0  0  0  0  0  0  0  0  0  0  0  0
    5.4180   19.9600   18.1190 C   0  0  0  0  0  0  0  0  0  0  0  0
    8.1350   22.1330   16.5430 C   0  0  0  0  0  0  0  0  0  0  0  0
    6.1940   20.6570   17.1810 C   0  0  0  0  0  0  0  0  0  0  0  0
    4.2960   19.1280   17.6930 C   0  0  0  0  0  0  0  0  0  0  0  0
    3.7990   18.8250   16.4460 C   0  0  0  0  0  0  0  0  0  0  0  0
    3.5200   18.4360   18.5860 N   0  0  0  0  0  0  0  0  0  0  0  0
    2.5570   17.7080   17.9400 C   0  0  0  0  0  0  0  0  0  0  0  0
    2.7280   17.9490   16.5980 C   0  0  0  0  0  0  0  0  0  0  0  0
    1.6100   16.8960   18.6740 C   0  0  0  0  0  0  0  0  0  0  0  0
    1.6390   16.7310   19.8930 O   0  0  0  0  0  0  0  0  0  0  0  0
    0.6180   16.2730   17.9820 N   0  0  0  0  0  0  0  0  0  0  0  0
    7.1290   20.8610   20.8920 H   0  0  0  0  0  0  0  0  0  0  0  0
    5.1880   19.5750   20.2080 H   0  0  0  0  0  0  0  0  0  0  0  0
    8.4960   22.0170   19.2320 H   0  0  0  0  0  0  0  0  0  0  0  0
    8.2650   21.5260   15.6470 H   0  0  0  0  0  0  0  0  0  0  0  0
    7.6450   23.0650   16.2610 H   0  0  0  0  0  0  0  0  0  0  0  0
    9.1240   22.3710   16.9340 H   0  0  0  0  0  0  0  0  0  0  0  0
    5.9300   20.6190   16.1580 H   0  0  0  0  0  0  0  0  0  0  0  0
    4.1690   19.1930   15.5250 H   0  0  0  0  0  0  0  0  0  0  0  0
    3.6300   18.4730   19.6130 H   0  0  0  0  0  0  0  0  0  0  0  0
    2.1430   17.5390   15.8160 H   0  0  0  0  0  0  0  0  0  0  0  0
    0.5590   16.3640   16.9580 H   0  0  0  0  0  0  0  0  0  0  0  0
   -0.0560   15.6680   18.4720 H   0  0  0  0  0  0  0  0  0  0  0  0
  1  2  1  0  0  0  0
  1  3  2  0  0  0  0
  1 16  1  0  0  0  0
  2  5  2  0  0  0  0
  2 17  1  0  0  0  0
  3  4  1  0  0  0  0
  3 18  1  0  0  0  0
  4  6  1  0  0  0  0
  4  7  2  0  0  0  0
  5  7  1  0  0  0  0
  5  8  1  0  0  0  0
  6 19  1  0  0  0  0
  6 20  1  0  0  0  0
  6 21  1  0  0  0  0
  7 22  1  0  0  0  0
  8  9  2  0  0  0  0
  8 10  1  0  0  0  0
  9 12  1  0  0  0  0
  9 23  1  0  0  0  0
 10 11  1  0  0  0  0
 10 24  1  0  0  0  0
 11 12  2  0  0  0  0
 11 13  1  0  0  0  0
 12 25  1  0  0  0  0
 13 14  2  0  0  0  0
 13 15  1  0  0  0  0
 15 26  1  0  0  0  0
 15 27  1  0  0  0  0
M  END
> <rseq>
1

> <mseq>
23

> <S>
-4.889602

> <rmsd_refine>
1.321331

> <E_conf>
-27.37214

> <E_score1>
-5.939636

> <E_refine>
-20.77828

> <E_score2>
-4.889602

>  <$File>
outputs/pdb_4j58_cleaned.pdb_2024_06_17__22_47_40_V2_BS398_MIN1_/SDF/sdf_db.sdf

> <Rec_index>
1

>  <PLIF_raw>
[[],[],[],[],[]]

>  <PLIF_ligidx>
[]

$$$$
23
  MOE2022           3D

 30 29  0  0  0  0  0  0  0  0999 V2000
    7.4130   20.8300   19.5950 C   0  0  0  0  0  0  0  0  0  0  0  0
    6.5030   21.0090   18.3660 C   0  0  0  0  0  0  0  0  0  0  0  0
    5.4200   19.9390   18.3980 C   0  0  0  0  0  0  0  0  0  0  0  0
    5.8460   22.4010   18.4190 C   0  0  0  0  0  0  0  0  0  0  0  0
    4.5700   19.6810   17.3770 C   0  0  0  0  0  0  0  0  0  0  0  0
    3.5220   18.6660   17.4090 C   0  0  0  0  0  0  0  0  0  0  0  0
    3.2900   18.0330   18.6250 N   0  0  0  0  0  0  0  0  0  0  0  0
    2.8790   18.3700   16.4090 O   0  0  0  0  0  0  0  0  0  0  0  0
    2.3890   17.0150   18.9920 C   0  0  0  0  0  0  0  0  0  0  0  0
    7.3700   20.8920   17.0960 C   0  0  0  0  0  0  0  0  0  0  0  0
    2.4460   16.5050   20.2590 C   0  0  0  0  0  0  0  0  0  0  0  0
    1.5760   15.5130   20.8370 C   0  0  0  0  0  0  0  0  0  0  0  0
    1.4990   16.5970   18.0260 N   0  0  0  0  0  0  0  0  0  0  0  0
    1.8230   15.1100   22.0090 O   0  5  0  0  0  0  0  0  0  0  0  0
    0.5720   15.0430   20.2280 O   0  0  0  0  0  0  0  0  0  0  0  0
    7.8910   19.8490   19.5780 H   0  0  0  0  0  0  0  0  0  0  0  0
    8.1990   21.5860   19.6120 H   0  0  0  0  0  0  0  0  0  0  0  0
    6.8450   20.9120   20.5210 H   0  0  0  0  0  0  0  0  0  0  0  0
    5.3590   19.3970   19.3060 H   0  0  0  0  0  0  0  0  0  0  0  0
    5.2280   22.5720   17.5370 H   0  0  0  0  0  0  0  0  0  0  0  0
    5.2070   22.4930   19.2970 H   0  0  0  0  0  0  0  0  0  0  0  0
    6.6010   23.1870   18.4600 H   0  0  0  0  0  0  0  0  0  0  0  0
    4.6350   20.2270   16.4730 H   0  0  0  0  0  0  0  0  0  0  0  0
    3.8780   18.3740   19.3980 H   0  0  0  0  0  0  0  0  0  0  0  0
    6.7810   21.0630   16.1960 H   0  0  0  0  0  0  0  0  0  0  0  0
    8.1740   21.6290   17.1090 H   0  0  0  0  0  0  0  0  0  0  0  0
    7.8280   19.9050   17.0290 H   0  0  0  0  0  0  0  0  0  0  0  0
    3.2040   16.8560   20.9040 H   0  0  0  0  0  0  0  0  0  0  0  0
    0.7010   16.0210   18.3430 H   0  0  0  0  0  0  0  0  0  0  0  0
    1.3700   17.2000   17.2000 H   0  0  0  0  0  0  0  0  0  0  0  0
  1  2  1  0  0  0  0
  1 16  1  0  0  0  0
  1 17  1  0  0  0  0
  1 18  1  0  0  0  0
  2  3  1  0  0  0  0
  2  4  1  0  0  0  0
  2 10  1  0  0  0  0
  3  5  2  0  0  0  0
  3 19  1  0  0  0  0
  4 20  1  0  0  0  0
  4 21  1  0  0  0  0
  4 22  1  0  0  0  0
  5  6  1  0  0  0  0
  5 23  1  0  0  0  0
  6  7  1  0  0  0  0
  6  8  2  0  0  0  0
  7  9  1  0  0  0  0
  7 24  1  0  0  0  0
  9 11  2  0  0  0  0
  9 13  1  0  0  0  0
 10 25  1  0  0  0  0
 10 26  1  0  0  0  0
 10 27  1  0  0  0  0
 11 12  1  0  0  0  0
 11 28  1  0  0  0  0
 12 14  1  0  0  0  0
 12 15  2  0  0  0  0
 13 29  1  0  0  0  0
 13 30  1  0  0  0  0
M  CHG  1  14  -1
M  END
> <rseq>
1

> <mseq>
24

> <S>
-5.393953

> <rmsd_refine>
0.555437

> <E_conf>
-249.5759

> <E_score1>
-7.067388

> <E_refine>
-27.75109

> <E_score2>
-5.393953

>  <$File>
outputs/pdb_4j58_cleaned.pdb_2024_06_17__22_47_40_V2_BS398_MIN1_/SDF/sdf_db.sdf

> <Rec_index>
1

>  <PLIF_raw>
[[14,15,14,14,15,15],[1206,1212,1206,1212,1206,1212],[81,81,81,81,81,81],[2,2,7,7,7,7],[0.8,8.5,4.458685671,3.655709542,1.377678087,4.441923271]]

> <FP:PLIF>
17 18 24 25

>  <PLIF_ligidx>
[[14,15],15,[14,14,15,15],[14,14,15]]

$$$$
36
  MOE2022           3D

 33 33  0  0  1  0  0  0  0  0999 V2000
    2.7670   16.1790   21.1530 O   0  5  0  0  0  0  0  0  0  0  0  0
    1.7840   15.9480   20.4130 C   0  0  0  0  0  0  0  0  0  0  0  0
    1.7820   16.5540   19.0000 C   0  0  0  0  0  0  0  0  0  0  0  0
    2.6720   17.7090   18.8730 N   0  0  0  0  0  0  0  0  0  0  0  0
    2.8110   18.4620   17.7730 C   0  0  0  0  0  0  0  0  0  0  0  0
    0.8000   15.2440   20.7380 O   0  0  0  0  0  0  0  0  0  0  0  0
    2.2070   18.2340   16.7250 O   0  0  0  0  0  0  0  0  0  0  0  0
    3.8220   19.6210   17.8580 C   0  0  1  0  0  0  0  0  0  0  0  0
    4.9370   19.4070   16.9020 N   0  0  0  0  0  0  0  0  0  0  0  0
    3.1520   20.9950   17.6660 C   0  0  0  0  0  0  0  0  0  0  0  0
    6.1050   20.2830   17.1190 C   0  0  0  0  0  0  0  0  0  0  0  0
    3.9400   22.1120   18.3690 C   0  0  0  0  0  0  0  0  0  0  0  0
    3.4510   22.6400   19.3680 O   0  0  0  0  0  0  0  0  0  0  0  0
    5.1710   22.4410   17.9180 N   0  0  0  0  0  0  0  0  0  0  0  0
    5.8020   21.7480   16.7990 C   0  0  0  0  0  0  0  0  0  0  0  0
    6.0740   23.2680   18.7190 C   0  0  0  0  0  0  0  0  0  0  0  0
    7.0480   22.4290   19.5600 C   0  0  0  0  0  0  0  0  0  0  0  0
    2.0950   15.7860   18.2950 H   0  0  0  0  0  0  0  0  0  0  0  0
    0.7650   16.8600   18.7540 H   0  0  0  0  0  0  0  0  0  0  0  0
    3.1880   17.9580   19.7050 H   0  0  0  0  0  0  0  0  0  0  0  0
    4.2600   19.5950   18.8580 H   0  0  0  0  0  0  0  0  0  0  0  0
    5.2400   18.4460   16.9840 H   0  0  0  0  0  0  0  0  0  0  0  0
    3.0450   21.2130   16.6030 H   0  0  0  0  0  0  0  0  0  0  0  0
    2.1500   20.9640   18.0940 H   0  0  0  0  0  0  0  0  0  0  0  0
    6.4600   20.1720   18.1430 H   0  0  0  0  0  0  0  0  0  0  0  0
    6.9140   19.9650   16.4700 H   0  0  0  0  0  0  0  0  0  0  0  0
    6.7270   22.2450   16.5400 H   0  0  0  0  0  0  0  0  0  0  0  0
    5.1900   21.8190   15.9100 H   0  0  0  0  0  0  0  0  0  0  0  0
    6.6330   23.9310   18.0730 H   0  0  0  0  0  0  0  0  0  0  0  0
    5.5070   23.9280   19.3590 H   0  0  0  0  0  0  0  0  0  0  0  0
    7.8470   22.0220   18.9390 H   0  0  0  0  0  0  0  0  0  0  0  0
    7.4960   23.0350   20.3410 H   0  0  0  0  0  0  0  0  0  0  0  0
    6.5310   21.5990   20.0400 H   0  0  0  0  0  0  0  0  0  0  0  0
  1  2  1  0  0  0  0
  2  3  1  0  0  0  0
  2  6  2  0  0  0  0
  3  4  1  0  0  0  0
  3 18  1  0  0  0  0
  3 19  1  0  0  0  0
  4  5  1  0  0  0  0
  4 20  1  0  0  0  0
  5  7  2  0  0  0  0
  5  8  1  0  0  0  0
  8  9  1  0  0  0  0
  8 10  1  0  0  0  0
  8 21  1  0  0  0  0
  9 11  1  0  0  0  0
  9 22  1  0  0  0  0
 10 12  1  0  0  0  0
 10 23  1  0  0  0  0
 10 24  1  0  0  0  0
 11 15  1  0  0  0  0
 11 25  1  0  0  0  0
 11 26  1  0  0  0  0
 12 13  2  0  0  0  0
 12 14  1  0  0  0  0
 14 15  1  0  0  0  0
 14 16  1  0  0  0  0
 15 27  1  0  0  0  0
 15 28  1  0  0  0  0
 16 17  1  0  0  0  0
 16 29  1  0  0  0  0
 16 30  1  0  0  0  0
 17 31  1  0  0  0  0
 17 32  1  0  0  0  0
 17 33  1  0  0  0  0
M  CHG  1   1  -1
M  END
> <rseq>
1

> <mseq>
37

> <S>
-4.975341

> <rmsd_refine>
1.322181

> <E_conf>
-40.26953

> <E_score1>
-8.062499

> <E_refine>
-24.94061

> <E_score2>
-4.975341

>  <$File>
outputs/pdb_4j58_cleaned.pdb_2024_06_17__22_47_40_V2_BS398_MIN1_/SDF/sdf_db.sdf

> <Rec_index>
1

>  <PLIF_raw>
[[9,6,6,6,6],[953,1206,1212,1206,1212],[62,81,81,81,81],[1,2,2,7,7],[0.7,1.6,5.8,2.563741619,4.48802628]]

> <FP:PLIF>
28 17 18 24 25

>  <PLIF_ligidx>
[9,[6,6],[6,6],[6,6],6]

$$$$
37
  MOE2022           3D

 33 34  0  0  0  0  0  0  0  0999 V2000
    8.3570   21.1450   18.5910 C   0  0  0  0  0  0  0  0  0  0  0  0
    8.5470   22.0270   17.5330 C   0  0  0  0  0  0  0  0  0  0  0  0
    7.1870   20.4000   18.6770 C   0  0  0  0  0  0  0  0  0  0  0  0
    6.1840   20.5260   17.7020 C   0  0  0  0  0  0  0  0  0  0  0  0
    6.3990   21.4150   16.6340 C   0  0  0  0  0  0  0  0  0  0  0  0
    7.5700   22.1580   16.5540 C   0  0  0  0  0  0  0  0  0  0  0  0
    4.9470   19.7540   17.8090 C   0  0  0  0  0  0  0  0  0  0  0  0
    3.9760   19.6900   16.6360 C   0  0  0  0  0  0  0  0  0  0  0  0
    4.6730   19.1700   18.8360 O   0  0  0  0  0  0  0  0  0  0  0  0
    2.8300   18.7780   16.7830 N   0  0  0  0  0  0  0  0  0  0  0  0
    1.5560   19.3820   17.1950 C   0  0  0  0  0  0  0  0  0  0  0  0
    2.9120   17.4800   16.4210 C   0  0  0  0  0  0  0  0  0  0  0  0
    3.9260   17.0000   15.9210 O   0  0  0  0  0  0  0  0  0  0  0  0
    0.4860   18.3680   17.6170 C   0  0  0  0  0  0  0  0  0  0  0  0
    0.4030   17.2550   16.6730 N   0  0  0  0  0  0  0  0  0  0  0  0
   -0.6550   16.3260   17.0750 C   0  0  0  0  0  0  0  0  0  0  0  0
    1.7110   16.5520   16.6650 C   0  0  0  0  0  0  0  0  0  0  0  0
    9.1090   21.0430   19.3290 H   0  0  0  0  0  0  0  0  0  0  0  0
    9.4350   22.6000   17.4740 H   0  0  0  0  0  0  0  0  0  0  0  0
    7.0600   19.7300   19.4890 H   0  0  0  0  0  0  0  0  0  0  0  0
    5.6660   21.5400   15.8810 H   0  0  0  0  0  0  0  0  0  0  0  0
    7.7190   22.8300   15.7480 H   0  0  0  0  0  0  0  0  0  0  0  0
    3.6120   20.6880   16.4350 H   0  0  0  0  0  0  0  0  0  0  0  0
    4.5260   19.4380   15.7400 H   0  0  0  0  0  0  0  0  0  0  0  0
    1.7230   20.0850   17.9990 H   0  0  0  0  0  0  0  0  0  0  0  0
    1.1700   19.9670   16.3720 H   0  0  0  0  0  0  0  0  0  0  0  0
    0.7120   17.9910   18.6060 H   0  0  0  0  0  0  0  0  0  0  0  0
   -0.4730   18.8640   17.6740 H   0  0  0  0  0  0  0  0  0  0  0  0
   -0.7130   15.4940   16.3870 H   0  0  0  0  0  0  0  0  0  0  0  0
   -0.4780   15.9310   18.0670 H   0  0  0  0  0  0  0  0  0  0  0  0
   -1.6170   16.8200   17.0760 H   0  0  0  0  0  0  0  0  0  0  0  0
    1.6940   15.7900   15.8850 H   0  0  0  0  0  0  0  0  0  0  0  0
    1.8590   16.0640   17.6290 H   0  0  0  0  0  0  0  0  0  0  0  0
  1  2  1  0  0  0  0
  1  3  2  0  0  0  0
  1 18  1  0  0  0  0
  2  6  2  0  0  0  0
  2 19  1  0  0  0  0
  3  4  1  0  0  0  0
  3 20  1  0  0  0  0
  4  5  2  0  0  0  0
  4  7  1  0  0  0  0
  5  6  1  0  0  0  0
  5 21  1  0  0  0  0
  6 22  1  0  0  0  0
  7  8  1  0  0  0  0
  7  9  2  0  0  0  0
  8 10  1  0  0  0  0
  8 23  1  0  0  0  0
  8 24  1  0  0  0  0
 10 11  1  0  0  0  0
 10 12  1  0  0  0  0
 11 14  1  0  0  0  0
 11 25  1  0  0  0  0
 11 26  1  0  0  0  0
 12 13  2  0  0  0  0
 12 17  1  0  0  0  0
 14 15  1  0  0  0  0
 14 27  1  0  0  0  0
 14 28  1  0  0  0  0
 15 16  1  0  0  0  0
 15 17  1  0  0  0  0
 16 29  1  0  0  0  0
 16 30  1  0  0  0  0
 16 31  1  0  0  0  0
 17 32  1  0  0  0  0
 17 33  1  0  0  0  0
M  END
> <rseq>
1

> <mseq>
38

> <S>
-4.87597

> <rmsd_refine>
1.407259

> <E_conf>
104.1244

> <E_score1>
-7.859005

> <E_refine>
-22.61877

> <E_score2>
-4.87597

>  <$File>
outputs/pdb_4j58_cleaned.pdb_2024_06_17__22_47_40_V2_BS398_MIN1_/SDF/sdf_db.sdf

> <Rec_index>
1

>  <PLIF_raw>
[[13,13,1,1,1,1,1,1],[820,954,1650,1653,1657,1659,1655,1651],[54,62,112,112,112,112,112,112],[2,2,10,10,10,10,10,10],[0.7,0.9,0.6,0.6,0.6,0.6,0.6,0.6]]

> <FP:PLIF>
6 20 15

>  <PLIF_ligidx>
[13,13,[1,1,1,1,1,1]]

$$$$
38
  MOE2022           3D

 41 42  0  0  1  0  0  0  0  0999 V2000
    7.9970   20.5960   18.6150 C   0  0  0  0  0  0  0  0  0  0  0  0
    7.0890   20.1250   19.5570 C   0  0  0  0  0  0  0  0  0  0  0  0
    7.5580   20.9400   17.3410 C   0  0  0  0  0  0  0  0  0  0  0  0
    6.2110   20.8110   17.0100 C   0  0  0  0  0  0  0  0  0  0  0  0
    5.7450   19.9920   19.2260 C   0  0  0  0  0  0  0  0  0  0  0  0
    5.3010   20.3330   17.9520 C   0  0  0  0  0  0  0  0  0  0  0  0
    3.8460   20.1520   17.6000 C   0  0  0  0  0  0  0  0  0  0  0  0
    3.5040   18.7640   17.1480 N   0  3  1  0  0  0  0  0  0  0  0  0
    2.2450   18.2420   17.7870 C   0  0  0  0  0  0  0  0  0  0  0  0
    3.4790   18.6390   15.6530 C   0  0  0  0  0  0  0  0  0  0  0  0
    1.7990   16.8470   17.2970 C   0  0  2  0  0  0  0  0  0  0  0  0
    1.6680   16.8680   15.7560 C   0  0  2  0  0  0  0  0  0  0  0  0
    0.4880   16.3990   17.9770 C   0  0  2  0  0  0  0  0  0  0  0  0
   -0.5400   17.3030   17.6400 O   0  0  0  0  0  0  0  0  0  0  0  0
    1.2160   15.5770   15.2040 N   0  3  0  0  0  0  0  0  0  0  0  0
    3.0180   17.2680   15.1460 C   0  0  0  0  0  0  0  0  0  0  0  0
    0.6140   16.2870   19.5020 C   0  0  0  0  0  0  0  0  0  0  0  0
    9.0220   20.6950   18.8680 H   0  0  0  0  0  0  0  0  0  0  0  0
    7.4190   19.8670   20.5270 H   0  0  0  0  0  0  0  0  0  0  0  0
    8.2500   21.3010   16.6240 H   0  0  0  0  0  0  0  0  0  0  0  0
    5.8810   21.0770   16.0390 H   0  0  0  0  0  0  0  0  0  0  0  0
    5.0610   19.6280   19.9480 H   0  0  0  0  0  0  0  0  0  0  0  0
    3.2620   20.4350   18.4640 H   0  0  0  0  0  0  0  0  0  0  0  0
    3.5700   20.8910   16.8590 H   0  0  0  0  0  0  0  0  0  0  0  0
    4.2620   18.1850   17.4820 H   0  0  0  0  0  0  0  0  0  0  0  0
    2.3460   18.2110   18.8640 H   0  0  0  0  0  0  0  0  0  0  0  0
    1.4220   18.9260   17.6260 H   0  0  0  0  0  0  0  0  0  0  0  0
    2.8250   19.3860   15.2200 H   0  0  0  0  0  0  0  0  0  0  0  0
    4.4470   18.8590   15.2230 H   0  0  0  0  0  0  0  0  0  0  0  0
    2.5850   16.1440   17.5780 H   0  0  0  0  0  0  0  0  0  0  0  0
    0.9340   17.6300   15.4880 H   0  0  0  0  0  0  0  0  0  0  0  0
    0.2100   15.4130   17.6040 H   0  0  0  0  0  0  0  0  0  0  0  0
   -1.3560   17.0270   18.0690 H   0  0  0  0  0  0  0  0  0  0  0  0
    1.8630   14.8440   15.4600 H   0  0  0  0  0  0  0  0  0  0  0  0
    0.3050   15.3530   15.5790 H   0  0  0  0  0  0  0  0  0  0  0  0
    1.1510   15.6350   14.1970 H   0  0  0  0  0  0  0  0  0  0  0  0
    2.9320   17.3090   14.0590 H   0  0  0  0  0  0  0  0  0  0  0  0
    3.7660   16.5210   15.4090 H   0  0  0  0  0  0  0  0  0  0  0  0
   -0.3150   15.8940   19.9150 H   0  0  0  0  0  0  0  0  0  0  0  0
    1.4270   15.6050   19.7550 H   0  0  0  0  0  0  0  0  0  0  0  0
    0.8120   17.2620   19.9470 H   0  0  0  0  0  0  0  0  0  0  0  0
  1  2  1  0  0  0  0
  1  3  2  0  0  0  0
  1 18  1  0  0  0  0
  2  5  2  0  0  0  0
  2 19  1  0  0  0  0
  3  4  1  0  0  0  0
  3 20  1  0  0  0  0
  4  6  2  0  0  0  0
  4 21  1  0  0  0  0
  5  6  1  0  0  0  0
  5 22  1  0  0  0  0
  6  7  1  0  0  0  0
  7  8  1  0  0  0  0
  7 23  1  0  0  0  0
  7 24  1  0  0  0  0
  8  9  1  0  0  0  0
  8 10  1  0  0  0  0
  8 25  1  0  0  0  0
  9 11  1  0  0  0  0
  9 26  1  0  0  0  0
  9 27  1  0  0  0  0
 10 16  1  0  0  0  0
 10 28  1  0  0  0  0
 10 29  1  0  0  0  0
 11 12  1  0  0  0  0
 11 13  1  0  0  0  0
 11 30  1  0  0  0  0
 12 15  1  0  0  0  0
 12 16  1  0  0  0  0
 12 31  1  0  0  0  0
 13 14  1  0  0  0  0
 13 17  1  0  0  0  0
 13 32  1  0  0  0  0
 14 33  1  0  0  0  0
 15 34  1  0  0  0  0
 15 35  1  0  0  0  0
 15 36  1  0  0  0  0
 16 37  1  0  0  0  0
 16 38  1  0  0  0  0
 17 39  1  0  0  0  0
 17 40  1  0  0  0  0
 17 41  1  0  0  0  0
M  CHG  1   8   1
M  CHG  1  15   1
M  END
> <rseq>
1

> <mseq>
39

> <S>
-5.105741

> <rmsd_refine>
1.708226

> <E_conf>
-121.5766

> <E_score1>
-7.450241

> <E_refine>
-19.90811

> <E_score2>
-5.105741

>  <$File>
outputs/pdb_4j58_cleaned.pdb_2024_06_17__22_47_40_V2_BS398_MIN1_/SDF/sdf_db.sdf

> <Rec_index>
1

>  <PLIF_raw>
[[7,15],[1504,1071],[101,71],[3,3],[1.1,0.9]]

> <FP:PLIF>
7 8

>  <PLIF_ligidx>
[15,7]

$$$$
39
  MOE2022           3D

 35 36  0  0  1  0  0  0  0  0999 V2000
    8.1930   21.6230   18.0100 C   0  0  0  0  0  0  0  0  0  0  0  0
    7.7020   22.8160   17.4950 C   0  0  0  0  0  0  0  0  0  0  0  0
    7.4760   20.4460   17.8280 C   0  0  0  0  0  0  0  0  0  0  0  0
    6.2690   20.4580   17.1300 C   0  0  0  0  0  0  0  0  0  0  0  0
    6.4940   22.8200   16.8020 C   0  0  0  0  0  0  0  0  0  0  0  0
    6.0350   24.0110   16.3110 O   0  0  0  0  0  0  0  0  0  0  0  0
    5.7570   21.6480   16.6020 C   0  0  0  0  0  0  0  0  0  0  0  0
    4.4470   21.7060   15.8160 C   0  0  2  0  0  0  0  0  0  0  0  0
    3.6580   20.4890   15.9230 N   0  0  0  0  0  0  0  0  0  0  0  0
    2.9550   20.4080   17.2120 C   0  0  2  0  0  0  0  0  0  0  0  0
    2.6280   18.9740   17.5600 C   0  0  0  0  0  0  0  0  0  0  0  0
    1.5910   21.1080   17.1300 C   0  0  0  0  0  0  0  0  0  0  0  0
    4.6540   22.0410   14.3900 N   0  3  0  0  0  0  0  0  0  0  0  0
    0.5770   20.0060   16.7990 C   0  0  0  0  0  0  0  0  0  0  0  0
    1.1480   18.7100   17.3960 C   0  0  1  0  0  0  0  0  0  0  0  0
    0.8550   17.5470   16.5680 N   0  0  0  0  0  0  0  0  0  0  0  0
    3.4170   18.1880   18.0080 O   0  0  0  0  0  0  0  0  0  0  0  0
    9.1110   21.6080   18.5400 H   0  0  0  0  0  0  0  0  0  0  0  0
    8.2450   23.7120   17.6290 H   0  0  0  0  0  0  0  0  0  0  0  0
    7.8510   19.5370   18.2230 H   0  0  0  0  0  0  0  0  0  0  0  0
    5.7450   19.5460   17.0100 H   0  0  0  0  0  0  0  0  0  0  0  0
    6.6350   24.7410   16.5650 H   0  0  0  0  0  0  0  0  0  0  0  0
    3.8570   22.4880   16.2760 H   0  0  0  0  0  0  0  0  0  0  0  0
    2.9690   20.4540   15.1860 H   0  0  0  0  0  0  0  0  0  0  0  0
    3.5630   20.8410   17.9960 H   0  0  0  0  0  0  0  0  0  0  0  0
    1.3600   21.5240   18.1100 H   0  0  0  0  0  0  0  0  0  0  0  0
    1.5640   21.9070   16.3880 H   0  0  0  0  0  0  0  0  0  0  0  0
    5.2310   22.8660   14.3080 H   0  0  0  0  0  0  0  0  0  0  0  0
    5.1040   21.2780   13.9120 H   0  0  0  0  0  0  0  0  0  0  0  0
    3.7720   22.2230   13.9340 H   0  0  0  0  0  0  0  0  0  0  0  0
   -0.4100   20.2340   17.2040 H   0  0  0  0  0  0  0  0  0  0  0  0
    0.5100   19.9080   15.7140 H   0  0  0  0  0  0  0  0  0  0  0  0
    0.7220   18.5450   18.3760 H   0  0  0  0  0  0  0  0  0  0  0  0
    1.2540   16.7270   17.0050 H   0  0  0  0  0  0  0  0  0  0  0  0
    1.2700   17.6750   15.6560 H   0  0  0  0  0  0  0  0  0  0  0  0
  1  2  1  0  0  0  0
  1  3  2  0  0  0  0
  1 18  1  0  0  0  0
  2  5  2  0  0  0  0
  2 19  1  0  0  0  0
  3  4  1  0  0  0  0
  3 20  1  0  0  0  0
  4  7  2  0  0  0  0
  4 21  1  0  0  0  0
  5  6  1  0  0  0  0
  5  7  1  0  0  0  0
  6 22  1  0  0  0  0
  7  8  1  0  0  0  0
  8  9  1  0  0  0  0
  8 13  1  0  0  0  0
  8 23  1  0  0  0  0
  9 10  1  0  0  0  0
  9 24  1  0  0  0  0
 10 11  1  0  0  0  0
 10 12  1  0  0  0  0
 10 25  1  0  0  0  0
 11 15  1  0  0  0  0
 11 17  2  0  0  0  0
 12 14  1  0  0  0  0
 12 26  1  0  0  0  0
 12 27  1  0  0  0  0
 13 28  1  0  0  0  0
 13 29  1  0  0  0  0
 13 30  1  0  0  0  0
 14 15  1  0  0  0  0
 14 31  1  0  0  0  0
 14 32  1  0  0  0  0
 15 16  1  0  0  0  0
 15 33  1  0  0  0  0
 16 34  1  0  0  0  0
 16 35  1  0  0  0  0
M  CHG  1  13   1
M  END
> <rseq>
1

> <mseq>
40

> <S>
-4.188375

> <rmsd_refine>
1.105475

> <E_conf>
-74.43176

> <E_score1>
-7.346766

> <E_refine>
-14.57316

> <E_score2>
-4.188375

>  <$File>
outputs/pdb_4j58_cleaned.pdb_2024_06_17__22_47_40_V2_BS398_MIN1_/SDF/sdf_db.sdf

> <Rec_index>
1

>  <PLIF_raw>
[17,954,62,2,1.3]

> <FP:PLIF>
20

>  <PLIF_ligidx>
17

$$$$
40
  MOE2022           3D

 36 37  0  0  1  0  0  0  0  0999 V2000
    1.3400   16.1980   20.5590 C   0  0  0  0  0  0  0  0  0  0  0  0
    2.2090   16.5800   19.5430 C   0  0  0  0  0  0  0  0  0  0  0  0
    1.7900   16.5570   18.2060 C   0  0  0  0  0  0  0  0  0  0  0  0
    2.6970   16.9820   17.1460 C   0  0  0  0  0  0  0  0  0  0  0  0
    0.0450   15.7910   20.2510 C   0  0  0  0  0  0  0  0  0  0  0  0
    0.4900   16.1370   17.9060 C   0  0  0  0  0  0  0  0  0  0  0  0
   -0.3770   15.7560   18.9240 C   0  0  0  0  0  0  0  0  0  0  0  0
    3.3650   16.1780   16.4990 O   0  0  0  0  0  0  0  0  0  0  0  0
    2.8280   18.3360   16.8770 N   0  0  0  0  0  0  0  0  0  0  0  0
    1.8610   19.3230   17.3920 C   0  0  0  0  0  0  0  0  0  0  0  0
    2.3750   20.7740   17.3550 C   0  0  0  0  0  0  0  0  0  0  0  0
    3.8670   20.8470   17.7390 C   0  0  0  0  0  0  0  0  0  0  0  0
    3.9000   18.8780   16.0320 C   0  0  0  0  0  0  0  0  0  0  0  0
    4.6830   20.0260   16.7100 C   0  0  0  0  0  0  0  0  0  0  0  0
    4.4150   22.2850   17.8920 C   0  0  1  0  0  0  0  0  0  0  0  0
    3.6010   23.1660   18.8490 C   0  0  0  0  0  0  0  0  0  0  0  0
    5.7360   22.2340   18.3960 O   0  0  0  0  0  0  0  0  0  0  0  0
    1.6640   16.2200   21.5670 H   0  0  0  0  0  0  0  0  0  0  0  0
    3.1920   16.8940   19.7810 H   0  0  0  0  0  0  0  0  0  0  0  0
   -0.6230   15.5120   21.0230 H   0  0  0  0  0  0  0  0  0  0  0  0
    0.1640   16.1090   16.8980 H   0  0  0  0  0  0  0  0  0  0  0  0
   -1.3610   15.4410   18.6900 H   0  0  0  0  0  0  0  0  0  0  0  0
    0.9320   19.2520   16.8430 H   0  0  0  0  0  0  0  0  0  0  0  0
    1.6080   19.0820   18.4130 H   0  0  0  0  0  0  0  0  0  0  0  0
    2.2410   21.1800   16.3510 H   0  0  0  0  0  0  0  0  0  0  0  0
    1.7660   21.3560   18.0450 H   0  0  0  0  0  0  0  0  0  0  0  0
    3.9760   20.3520   18.7040 H   0  0  0  0  0  0  0  0  0  0  0  0
    4.5890   18.1080   15.7150 H   0  0  0  0  0  0  0  0  0  0  0  0
    3.4550   19.2480   15.1180 H   0  0  0  0  0  0  0  0  0  0  0  0
    5.0500   20.6820   15.9200 H   0  0  0  0  0  0  0  0  0  0  0  0
    5.5450   19.6010   17.2240 H   0  0  0  0  0  0  0  0  0  0  0  0
    4.4330   22.7680   16.9140 H   0  0  0  0  0  0  0  0  0  0  0  0
    3.4150   22.6370   19.7830 H   0  0  0  0  0  0  0  0  0  0  0  0
    4.1450   24.0880   19.0560 H   0  0  0  0  0  0  0  0  0  0  0  0
    2.6480   23.4320   18.3910 H   0  0  0  0  0  0  0  0  0  0  0  0
    6.2800   21.7420   17.7780 H   0  0  0  0  0  0  0  0  0  0  0  0
  1  2  1  0  0  0  0
  1  5  2  0  0  0  0
  1 18  1  0  0  0  0
  2  3  2  0  0  0  0
  2 19  1  0  0  0  0
  3  4  1  0  0  0  0
  3  6  1  0  0  0  0
  4  8  2  0  0  0  0
  4  9  1  0  0  0  0
  5  7  1  0  0  0  0
  5 20  1  0  0  0  0
  6  7  2  0  0  0  0
  6 21  1  0  0  0  0
  7 22  1  0  0  0  0
  9 10  1  0  0  0  0
  9 13  1  0  0  0  0
 10 11  1  0  0  0  0
 10 23  1  0  0  0  0
 10 24  1  0  0  0  0
 11 12  1  0  0  0  0
 11 25  1  0  0  0  0
 11 26  1  0  0  0  0
 12 14  1  0  0  0  0
 12 15  1  0  0  0  0
 12 27  1  0  0  0  0
 13 14  1  0  0  0  0
 13 28  1  0  0  0  0
 13 29  1  0  0  0  0
 14 30  1  0  0  0  0
 14 31  1  0  0  0  0
 15 16  1  0  0  0  0
 15 17  1  0  0  0  0
 15 32  1  0  0  0  0
 16 33  1  0  0  0  0
 16 34  1  0  0  0  0
 16 35  1  0  0  0  0
 17 36  1  0  0  0  0
M  END
> <rseq>
1

> <mseq>
41

> <S>
-4.915205

> <rmsd_refine>
1.544521

> <E_conf>
1.341112

> <E_score1>
-8.259759

> <E_refine>
-22.40439

> <E_score2>
-4.915205

>  <$File>
outputs/pdb_4j58_cleaned.pdb_2024_06_17__22_47_40_V2_BS398_MIN1_/SDF/sdf_db.sdf

> <Rec_index>
1

>  <PLIF_raw>
[[8,1,2,3,6,7,5],[954,1519,1519,1519,1519,1519,1519],[62,102,102,102,102,102,102],[2,10,10,10,10,10,10],[0.8,1,1,1,1,1,1]]

> <FP:PLIF>
20 22 33

>  <PLIF_ligidx>
[8,[1,2,3,6,7,5],[1,2,3,6,7,5]]

$$$$
41
  MOE2022           3D

 29 30  0  0  0  0  0  0  0  0999 V2000
    8.1380   20.9660   18.5950 C   0  0  0  0  0  0  0  0  0  0  0  0
    8.3570   21.8270   17.5250 C   0  0  0  0  0  0  0  0  0  0  0  0
    6.9620   20.2290   18.6690 C   0  0  0  0  0  0  0  0  0  0  0  0
    5.9820   20.3380   17.6690 C   0  0  0  0  0  0  0  0  0  0  0  0
    6.2220   21.2110   16.5930 C   0  0  0  0  0  0  0  0  0  0  0  0
    7.4000   21.9470   16.5250 C   0  0  0  0  0  0  0  0  0  0  0  0
    4.7470   19.5590   17.7550 C   0  0  0  0  0  0  0  0  0  0  0  0
    3.8190   19.4360   16.5500 C   0  0  0  0  0  0  0  0  0  0  0  0
    4.4470   18.9980   18.7870 O   0  0  0  0  0  0  0  0  0  0  0  0
    2.6540   18.5470   16.7000 N   0  0  0  0  0  0  0  0  0  0  0  0
    1.4730   19.0930   17.3730 C   0  0  0  0  0  0  0  0  0  0  0  0
    2.7650   17.1810   16.4710 C   0  0  0  0  0  0  0  0  0  0  0  0
    3.7810   16.6690   16.0090 O   0  0  0  0  0  0  0  0  0  0  0  0
    0.2110   18.3310   16.9780 C   0  0  0  0  0  0  0  0  0  0  0  0
    0.4350   16.8460   17.1120 C   0  0  0  0  0  0  0  0  0  0  0  0
    1.6800   16.3680   16.7840 N   0  0  0  0  0  0  0  0  0  0  0  0
   -0.4130   16.0660   17.4920 O   0  0  0  0  0  0  0  0  0  0  0  0
    8.8720   20.8730   19.3520 H   0  0  0  0  0  0  0  0  0  0  0  0
    9.2520   22.3910   17.4740 H   0  0  0  0  0  0  0  0  0  0  0  0
    6.8130   19.5760   19.4910 H   0  0  0  0  0  0  0  0  0  0  0  0
    5.5050   21.3260   15.8230 H   0  0  0  0  0  0  0  0  0  0  0  0
    7.5690   22.6050   15.7110 H   0  0  0  0  0  0  0  0  0  0  0  0
    3.4730   20.4230   16.2750 H   0  0  0  0  0  0  0  0  0  0  0  0
    4.4010   19.1240   15.6930 H   0  0  0  0  0  0  0  0  0  0  0  0
    1.6140   19.0180   18.4420 H   0  0  0  0  0  0  0  0  0  0  0  0
    1.3530   20.1450   17.1510 H   0  0  0  0  0  0  0  0  0  0  0  0
   -0.6360   18.6530   17.5650 H   0  0  0  0  0  0  0  0  0  0  0  0
   -0.0270   18.5580   15.9480 H   0  0  0  0  0  0  0  0  0  0  0  0
    1.8230   15.3460   16.7900 H   0  0  0  0  0  0  0  0  0  0  0  0
  1  2  1  0  0  0  0
  1  3  2  0  0  0  0
  1 18  1  0  0  0  0
  2  6  2  0  0  0  0
  2 19  1  0  0  0  0
  3  4  1  0  0  0  0
  3 20  1  0  0  0  0
  4  5  2  0  0  0  0
  4  7  1  0  0  0  0
  5  6  1  0  0  0  0
  5 21  1  0  0  0  0
  6 22  1  0  0  0  0
  7  8  1  0  0  0  0
  7  9  2  0  0  0  0
  8 10  1  0  0  0  0
  8 23  1  0  0  0  0
  8 24  1  0  0  0  0
 10 11  1  0  0  0  0
 10 12  1  0  0  0  0
 11 14  1  0  0  0  0
 11 25  1  0  0  0  0
 11 26  1  0  0  0  0
 12 13  2  0  0  0  0
 12 16  1  0  0  0  0
 14 15  1  0  0  0  0
 14 27  1  0  0  0  0
 14 28  1  0  0  0  0
 15 16  1  0  0  0  0
 15 17  2  0  0  0  0
 16 29  1  0  0  0  0
M  END
> <rseq>
1

> <mseq>
42

> <S>
-4.740595

> <rmsd_refine>
1.234615

> <E_conf>
-96.051

> <E_score1>
-7.842501

> <E_refine>
-24.41855

> <E_score2>
-4.740595

>  <$File>
outputs/pdb_4j58_cleaned.pdb_2024_06_17__22_47_40_V2_BS398_MIN1_/SDF/sdf_db.sdf

> <Rec_index>
1

>  <PLIF_raw>
[[16,13,1,1,1,1,1,1],[1071,954,1650,1653,1657,1659,1655,1651],[71,62,112,112,112,112,112,112],[3,2,10,10,10,10,10,10],[3.1,1.1,0.7,0.7,0.7,0.7,0.7,0.7]]

> <FP:PLIF>
20 7 14 15

>  <PLIF_ligidx>
[13,16,16,[1,1,1,1,1,1]]

$$$$
42
  MOE2022           3D

 35 36  0  0  1  0  0  0  0  0999 V2000
    7.5390   20.3330   18.4670 C   0  0  0  0  0  0  0  0  0  0  0  0
    6.6530   19.8690   19.4310 C   0  0  0  0  0  0  0  0  0  0  0  0
    7.0850   20.5860   17.1780 C   0  0  0  0  0  0  0  0  0  0  0  0
    5.7470   20.3700   16.8570 C   0  0  0  0  0  0  0  0  0  0  0  0
    5.3160   19.6470   19.1070 C   0  0  0  0  0  0  0  0  0  0  0  0
    4.8530   19.8920   17.8150 C   0  0  0  0  0  0  0  0  0  0  0  0
    3.3890   19.7150   17.4400 C   0  0  0  0  0  0  0  0  0  0  0  0
    2.9000   18.3150   17.2710 N   0  0  0  0  0  0  0  0  0  0  0  0
    2.4070   17.7910   18.5740 C   0  0  0  0  0  0  0  0  0  0  0  0
    1.7890   18.3500   16.2970 C   0  0  0  0  0  0  0  0  0  0  0  0
    1.6740   16.4340   18.4980 C   0  0  2  0  0  0  0  0  0  0  0  0
    0.4910   16.5720   17.5250 C   0  0  2  0  0  0  0  0  0  0  0  0
    1.2070   15.9340   19.8770 C   0  0  0  0  0  0  0  0  0  0  0  0
    0.7260   14.7800   19.9420 O   0  5  0  0  0  0  0  0  0  0  0  0
   -0.2910   15.3340   17.3800 N   0  3  0  0  0  0  0  0  0  0  0  0
    1.0420   17.0190   16.1700 C   0  0  0  0  0  0  0  0  0  0  0  0
    1.2940   16.7030   20.8550 O   0  0  0  0  0  0  0  0  0  0  0  0
    8.5570   20.4960   18.7140 H   0  0  0  0  0  0  0  0  0  0  0  0
    7.0000   19.6880   20.4140 H   0  0  0  0  0  0  0  0  0  0  0  0
    7.7580   20.9460   16.4440 H   0  0  0  0  0  0  0  0  0  0  0  0
    5.4050   20.5790   15.8760 H   0  0  0  0  0  0  0  0  0  0  0  0
    4.6510   19.2980   19.8510 H   0  0  0  0  0  0  0  0  0  0  0  0
    2.7630   20.2430   18.1450 H   0  0  0  0  0  0  0  0  0  0  0  0
    3.2310   20.2490   16.5130 H   0  0  0  0  0  0  0  0  0  0  0  0
    3.2320   17.7160   19.2680 H   0  0  0  0  0  0  0  0  0  0  0  0
    1.7070   18.5030   18.9820 H   0  0  0  0  0  0  0  0  0  0  0  0
    1.0850   19.1220   16.5840 H   0  0  0  0  0  0  0  0  0  0  0  0
    2.1770   18.6370   15.3290 H   0  0  0  0  0  0  0  0  0  0  0  0
    2.3970   15.7200   18.1070 H   0  0  0  0  0  0  0  0  0  0  0  0
   -0.1690   17.3530   17.9060 H   0  0  0  0  0  0  0  0  0  0  0  0
    0.3170   14.6060   17.0300 H   0  0  0  0  0  0  0  0  0  0  0  0
   -0.6150   15.0510   18.2960 H   0  0  0  0  0  0  0  0  0  0  0  0
   -1.0700   15.4790   16.7570 H   0  0  0  0  0  0  0  0  0  0  0  0
    0.2180   17.1450   15.4670 H   0  0  0  0  0  0  0  0  0  0  0  0
    1.7230   16.2600   15.7800 H   0  0  0  0  0  0  0  0  0  0  0  0
  1  2  1  0  0  0  0
  1  3  2  0  0  0  0
  1 18  1  0  0  0  0
  2  5  2  0  0  0  0
  2 19  1  0  0  0  0
  3  4  1  0  0  0  0
  3 20  1  0  0  0  0
  4  6  2  0  0  0  0
  4 21  1  0  0  0  0
  5  6  1  0  0  0  0
  5 22  1  0  0  0  0
  6  7  1  0  0  0  0
  7  8  1  0  0  0  0
  7 23  1  0  0  0  0
  7 24  1  0  0  0  0
  8  9  1  0  0  0  0
  8 10  1  0  0  0  0
  9 11  1  0  0  0  0
  9 25  1  0  0  0  0
  9 26  1  0  0  0  0
 10 16  1  0  0  0  0
 10 27  1  0  0  0  0
 10 28  1  0  0  0  0
 11 12  1  0  0  0  0
 11 13  1  0  0  0  0
 11 29  1  0  0  0  0
 12 15  1  0  0  0  0
 12 16  1  0  0  0  0
 12 30  1  0  0  0  0
 13 14  1  0  0  0  0
 13 17  2  0  0  0  0
 15 31  1  0  0  0  0
 15 32  1  0  0  0  0
 15 33  1  0  0  0  0
 16 34  1  0  0  0  0
 16 35  1  0  0  0  0
M  CHG  1  14  -1
M  CHG  1  15   1
M  END
> <rseq>
1

> <mseq>
43

> <S>
-5.011752

> <rmsd_refine>
2.494371

> <E_conf>
-201.1568

> <E_score1>
-7.56296

> <E_refine>
-28.23011

> <E_score2>
-5.011752

>  <$File>
outputs/pdb_4j58_cleaned.pdb_2024_06_17__22_47_40_V2_BS398_MIN1_/SDF/sdf_db.sdf

> <Rec_index>
1

>  <PLIF_raw>
[[15,8,14,14,14],[1071,954,1212,1206,1212],[71,62,81,81,81],[3,2,2,7,7],[7.5,0.5,8.7,0.716499495,4.456506155]]

> <FP:PLIF>
20 7 14 17 18 24 25

>  <PLIF_ligidx>
[8,15,15,14,14,[14,14],14]

$$$$
43
  MOE2022           3D

 34 35  0  0  0  0  0  0  0  0999 V2000
    1.3970   16.2090   20.5550 C   0  0  0  0  0  0  0  0  0  0  0  0
    2.2510   16.5960   19.5280 C   0  0  0  0  0  0  0  0  0  0  0  0
    1.8130   16.5810   18.1980 C   0  0  0  0  0  0  0  0  0  0  0  0
    2.7040   17.0120   17.1270 C   0  0  0  0  0  0  0  0  0  0  0  0
    0.0970   15.8060   20.2630 C   0  0  0  0  0  0  0  0  0  0  0  0
    0.5080   16.1630   17.9150 C   0  0  0  0  0  0  0  0  0  0  0  0
   -0.3440   15.7780   18.9430 C   0  0  0  0  0  0  0  0  0  0  0  0
    3.3660   16.2100   16.4720 O   0  0  0  0  0  0  0  0  0  0  0  0
    2.8270   18.3670   16.8570 N   0  0  0  0  0  0  0  0  0  0  0  0
    1.8890   19.3620   17.4170 C   0  0  0  0  0  0  0  0  0  0  0  0
    2.4610   20.7920   17.4600 C   0  0  0  0  0  0  0  0  0  0  0  0
    3.9650   20.7740   17.7910 C   0  0  0  0  0  0  0  0  0  0  0  0
    3.8810   18.9080   15.9840 C   0  0  0  0  0  0  0  0  0  0  0  0
    4.7030   20.0340   16.6520 C   0  0  0  0  0  0  0  0  0  0  0  0
    4.5340   22.1830   18.0650 C   0  0  0  0  0  0  0  0  0  0  0  0
    3.9350   22.7830   19.2230 O   0  0  0  0  0  0  0  0  0  0  0  0
    5.9490   22.1530   18.2830 O   0  0  0  0  0  0  0  0  0  0  0  0
    1.7360   16.2240   21.5590 H   0  0  0  0  0  0  0  0  0  0  0  0
    3.2390   16.9060   19.7540 H   0  0  0  0  0  0  0  0  0  0  0  0
   -0.5610   15.5240   21.0430 H   0  0  0  0  0  0  0  0  0  0  0  0
    0.1680   16.1410   16.9110 H   0  0  0  0  0  0  0  0  0  0  0  0
   -1.3320   15.4660   18.7210 H   0  0  0  0  0  0  0  0  0  0  0  0
    0.9650   19.3560   16.8550 H   0  0  0  0  0  0  0  0  0  0  0  0
    1.6150   19.0790   18.4210 H   0  0  0  0  0  0  0  0  0  0  0  0
    2.3140   21.2660   16.4880 H   0  0  0  0  0  0  0  0  0  0  0  0
    1.9080   21.3650   18.2030 H   0  0  0  0  0  0  0  0  0  0  0  0
    4.1080   20.2020   18.7100 H   0  0  0  0  0  0  0  0  0  0  0  0
    4.5480   18.1350   15.6310 H   0  0  0  0  0  0  0  0  0  0  0  0
    3.4100   19.3000   15.0920 H   0  0  0  0  0  0  0  0  0  0  0  0
    4.9870   20.7450   15.8750 H   0  0  0  0  0  0  0  0  0  0  0  0
    5.6160   19.6040   17.0640 H   0  0  0  0  0  0  0  0  0  0  0  0
    4.3460   22.8330   17.2200 H   0  0  0  0  0  0  0  0  0  0  0  0
    2.9680   22.7680   19.1370 H   0  0  0  0  0  0  0  0  0  0  0  0
    6.1640   21.4800   18.9470 H   0  0  0  0  0  0  0  0  0  0  0  0
  1  2  1  0  0  0  0
  1  5  2  0  0  0  0
  1 18  1  0  0  0  0
  2  3  2  0  0  0  0
  2 19  1  0  0  0  0
  3  4  1  0  0  0  0
  3  6  1  0  0  0  0
  4  8  2  0  0  0  0
  4  9  1  0  0  0  0
  5  7  1  0  0  0  0
  5 20  1  0  0  0  0
  6  7  2  0  0  0  0
  6 21  1  0  0  0  0
  7 22  1  0  0  0  0
  9 10  1  0  0  0  0
  9 13  1  0  0  0  0
 10 11  1  0  0  0  0
 10 23  1  0  0  0  0
 10 24  1  0  0  0  0
 11 12  1  0  0  0  0
 11 25  1  0  0  0  0
 11 26  1  0  0  0  0
 12 14  1  0  0  0  0
 12 15  1  0  0  0  0
 12 27  1  0  0  0  0
 13 14  1  0  0  0  0
 13 28  1  0  0  0  0
 13 29  1  0  0  0  0
 14 30  1  0  0  0  0
 14 31  1  0  0  0  0
 15 16  1  0  0  0  0
 15 17  1  0  0  0  0
 15 32  1  0  0  0  0
 16 33  1  0  0  0  0
 17 34  1  0  0  0  0
M  END
> <rseq>
1

> <mseq>
44

> <S>
-4.891208

> <rmsd_refine>
1.310091

> <E_conf>
-23.37377

> <E_score1>
-8.229386

> <E_refine>
-23.40913

> <E_score2>
-4.891208

>  <$File>
outputs/pdb_4j58_cleaned.pdb_2024_06_17__22_47_40_V2_BS398_MIN1_/SDF/sdf_db.sdf

> <Rec_index>
1

>  <PLIF_raw>
[[8,1,2,3,6,7,5],[954,1519,1519,1519,1519,1519,1519],[62,102,102,102,102,102,102],[2,10,10,10,10,10,10],[0.8,1,1,1,1,1,1]]

> <FP:PLIF>
20 22 33

>  <PLIF_ligidx>
[8,[1,2,3,6,7,5],[1,2,3,6,7,5]]

$$$$
44
  MOE2022           3D

 31 32  0  0  0  0  0  0  0  0999 V2000
    2.5070   16.7230   19.8480 C   0  0  0  0  0  0  0  0  0  0  0  0
    1.6220   15.9720   20.6150 C   0  0  0  0  0  0  0  0  0  0  0  0
    2.0350   15.4880   21.9840 C   0  0  0  0  0  0  0  0  0  0  0  0
    0.3580   15.6660   20.1090 C   0  0  0  0  0  0  0  0  0  0  0  0
    2.1240   17.1490   18.5810 C   0  0  0  0  0  0  0  0  0  0  0  0
    3.0300   17.9010   17.8600 O   0  0  0  0  0  0  0  0  0  0  0  0
    3.1200   17.9210   16.4870 C   0  0  0  0  0  0  0  0  0  0  0  0
    2.9710   16.7540   15.7380 C   0  0  0  0  0  0  0  0  0  0  0  0
    3.3780   19.1400   15.8690 C   0  0  0  0  0  0  0  0  0  0  0  0
   -0.0240   16.0950   18.8380 C   0  0  0  0  0  0  0  0  0  0  0  0
    3.4700   19.1970   14.4850 C   0  0  0  0  0  0  0  0  0  0  0  0
   -1.3900   15.7350   18.2950 C   0  0  0  0  0  0  0  0  0  0  0  0
    3.3170   18.0390   13.7020 C   0  0  0  0  0  0  0  0  0  0  0  0
    3.0630   16.8180   14.3530 C   0  0  0  0  0  0  0  0  0  0  0  0
    0.8620   16.8440   18.0690 C   0  0  0  0  0  0  0  0  0  0  0  0
    3.4430   18.1010   12.2430 C   0  0  0  0  0  0  0  0  0  0  0  0
    3.5590   19.2190   11.6720 O   0  5  0  0  0  0  0  0  0  0  0  0
    3.4850   17.0350   11.5720 O   0  0  0  0  0  0  0  0  0  0  0  0
    3.4680   16.9680   20.2180 H   0  0  0  0  0  0  0  0  0  0  0  0
    3.0610   15.7750   22.1900 H   0  0  0  0  0  0  0  0  0  0  0  0
    1.3980   15.9170   22.7570 H   0  0  0  0  0  0  0  0  0  0  0  0
    1.9870   14.4030   22.0420 H   0  0  0  0  0  0  0  0  0  0  0  0
   -0.3220   15.1040   20.6930 H   0  0  0  0  0  0  0  0  0  0  0  0
    2.7880   15.8260   16.2160 H   0  0  0  0  0  0  0  0  0  0  0  0
    3.4960   20.0180   16.4500 H   0  0  0  0  0  0  0  0  0  0  0  0
    3.6600   20.1290   14.0170 H   0  0  0  0  0  0  0  0  0  0  0  0
   -1.3660   14.7420   17.8470 H   0  0  0  0  0  0  0  0  0  0  0  0
   -2.1360   15.7380   19.0900 H   0  0  0  0  0  0  0  0  0  0  0  0
   -1.7070   16.4480   17.5340 H   0  0  0  0  0  0  0  0  0  0  0  0
    2.9440   15.9310   13.7840 H   0  0  0  0  0  0  0  0  0  0  0  0
    0.5770   17.1820   17.1070 H   0  0  0  0  0  0  0  0  0  0  0  0
  1  2  2  0  0  0  0
  1  5  1  0  0  0  0
  1 19  1  0  0  0  0
  2  3  1  0  0  0  0
  2  4  1  0  0  0  0
  3 20  1  0  0  0  0
  3 21  1  0  0  0  0
  3 22  1  0  0  0  0
  4 10  2  0  0  0  0
  4 23  1  0  0  0  0
  5  6  1  0  0  0  0
  5 15  2  0  0  0  0
  6  7  1  0  0  0  0
  7  8  1  0  0  0  0
  7  9  2  0  0  0  0
  8 14  2  0  0  0  0
  8 24  1  0  0  0  0
  9 11  1  0  0  0  0
  9 25  1  0  0  0  0
 10 12  1  0  0  0  0
 10 15  1  0  0  0  0
 11 13  2  0  0  0  0
 11 26  1  0  0  0  0
 12 27  1  0  0  0  0
 12 28  1  0  0  0  0
 12 29  1  0  0  0  0
 13 14  1  0  0  0  0
 13 16  1  0  0  0  0
 14 30  1  0  0  0  0
 15 31  1  0  0  0  0
 16 17  1  0  0  0  0
 16 18  2  0  0  0  0
M  CHG  1  17  -1
M  END
> <rseq>
1

> <mseq>
45

> <S>
-5.125472

> <rmsd_refine>
2.629709

> <E_conf>
-59.70752

> <E_score1>
-9.004755

> <E_refine>
-22.81553

> <E_score2>
-5.125472

>  <$File>
outputs/pdb_4j58_cleaned.pdb_2024_06_17__22_47_40_V2_BS398_MIN1_/SDF/sdf_db.sdf

> <Rec_index>
1

>  <PLIF_raw>
[[17,17,18,1,5,15,10,4,2],[823,829,823,1519,1519,1519,1519,1519,1519],[54,54,54,102,102,102,102,102,102],[7,7,7,10,10,10,10,10,10],[1.253458304,3.151460146,3.294824198,0.6,0.6,0.6,0.6,0.6,0.6]]

> <FP:PLIF>
1 22

>  <PLIF_ligidx>
[[17,17,18],[1,5,15,10,4,2]]

$$$$
45
  MOE2022           3D

 29 29  0  0  1  0  0  0  0  0999 V2000
    6.1990   20.5420   20.4090 O   0  0  0  0  0  0  0  0  0  0  0  0
    6.5250   20.0250   19.3140 C   0  0  0  0  0  0  0  0  0  0  0  0
    7.6650   19.5730   19.0700 O   0  5  0  0  0  0  0  0  0  0  0  0
    5.4400   19.8730   18.2520 C   0  0  1  0  0  0  0  0  0  0  0  0
    4.3340   19.0570   18.7720 N   0  0  0  0  0  0  0  0  0  0  0  0
    4.9490   21.2250   17.7000 C   0  0  0  0  0  0  0  0  0  0  0  0
    3.4560   18.2760   18.0450 C   0  0  0  0  0  0  0  0  0  0  0  0
    2.5700   17.4290   18.7860 C   0  0  0  0  0  0  0  0  0  0  0  0
    3.5040   18.3430   16.8050 O   0  0  0  0  0  0  0  0  0  0  0  0
    1.4500   16.7700   18.3660 C   0  0  0  0  0  0  0  0  0  0  0  0
    6.0260   21.9830   16.9260 C   0  0  0  0  0  0  0  0  0  0  0  0
    6.3900   21.5050   15.8260 O   0  0  0  0  0  0  0  0  0  0  0  0
    6.4420   23.0540   17.4230 O   0  5  0  0  0  0  0  0  0  0  0  0
    0.8050   16.1120   19.3780 N   0  0  0  0  0  0  0  0  0  0  0  0
    0.9370   16.7220   17.0910 N   0  0  0  0  0  0  0  0  0  0  0  0
    2.7830   17.1530   20.1480 O   0  0  0  0  0  0  0  0  0  0  0  0
   -0.1380   15.0070   19.2120 C   0  0  0  0  0  0  0  0  0  0  0  0
    1.7010   16.2350   20.5220 C   0  0  0  0  0  0  0  0  0  0  0  0
    5.8720   19.3460   17.4160 H   0  0  0  0  0  0  0  0  0  0  0  0
    4.1840   19.1030   19.7900 H   0  0  0  0  0  0  0  0  0  0  0  0
    4.1140   21.0480   17.0230 H   0  0  0  0  0  0  0  0  0  0  0  0
    4.5900   21.8390   18.5260 H   0  0  0  0  0  0  0  0  0  0  0  0
   -0.0360   16.4080   16.9730 H   0  0  0  0  0  0  0  0  0  0  0  0
    1.3170   17.3860   16.3990 H   0  0  0  0  0  0  0  0  0  0  0  0
   -0.7320   15.1130   18.3150 H   0  0  0  0  0  0  0  0  0  0  0  0
    0.3740   14.0580   19.1580 H   0  0  0  0  0  0  0  0  0  0  0  0
   -0.8260   14.9610   20.0440 H   0  0  0  0  0  0  0  0  0  0  0  0
    1.1790   16.6210   21.3880 H   0  0  0  0  0  0  0  0  0  0  0  0
    2.1260   15.2760   20.7860 H   0  0  0  0  0  0  0  0  0  0  0  0
  1  2  2  0  0  0  0
  2  3  1  0  0  0  0
  2  4  1  0  0  0  0
  4  5  1  0  0  0  0
  4  6  1  0  0  0  0
  4 19  1  0  0  0  0
  5  7  1  0  0  0  0
  5 20  1  0  0  0  0
  6 11  1  0  0  0  0
  6 21  1  0  0  0  0
  6 22  1  0  0  0  0
  7  8  1  0  0  0  0
  7  9  2  0  0  0  0
  8 10  2  0  0  0  0
  8 16  1  0  0  0  0
 10 14  1  0  0  0  0
 10 15  1  0  0  0  0
 11 12  2  0  0  0  0
 11 13  1  0  0  0  0
 14 17  1  0  0  0  0
 14 18  1  0  0  0  0
 15 23  1  0  0  0  0
 15 24  1  0  0  0  0
 16 18  1  0  0  0  0
 17 25  1  0  0  0  0
 17 26  1  0  0  0  0
 17 27  1  0  0  0  0
 18 28  1  0  0  0  0
 18 29  1  0  0  0  0
M  CHG  1   3  -1
M  CHG  1  13  -1
M  END
> <rseq>
1

> <mseq>
46

> <S>
-5.290684

> <rmsd_refine>
1.694534

> <E_conf>
-195.333

> <E_score1>
-9.261994

> <E_refine>
-25.93287

> <E_score2>
-5.290684

>  <$File>
outputs/pdb_4j58_cleaned.pdb_2024_06_17__22_47_40_V2_BS398_MIN1_/SDF/sdf_db.sdf

> <Rec_index>
1

>  <PLIF_raw>
[[12,1,1,12],[826,1866,1872,826],[54,125,125,54],[2,7,7,7],[4.6,1.701406134,0.8800900589,3.907673797]]

> <FP:PLIF>
6 19 1 16 13

>  <PLIF_ligidx>
[12,12,12,12,[1,1]]

$$$$
46
  MOE2022           3D

 32 32  0  0  0  0  0  0  0  0999 V2000
    6.0210   21.1730   16.5300 C   0  0  0  0  0  0  0  0  0  0  0  0
    5.1980   21.7260   15.5550 C   0  0  0  0  0  0  0  0  0  0  0  0
    5.5360   20.1730   17.3650 C   0  0  0  0  0  0  0  0  0  0  0  0
    3.8870   21.2800   15.4170 C   0  0  0  0  0  0  0  0  0  0  0  0
    4.2180   19.7100   17.2360 C   0  0  0  0  0  0  0  0  0  0  0  0
    3.3970   20.2830   16.2530 C   0  0  0  0  0  0  0  0  0  0  0  0
    3.7230   18.6690   18.1410 C   0  0  0  0  0  0  0  0  0  0  0  0
    2.7370   17.7550   17.7330 N   0  0  0  0  0  0  0  0  0  0  0  0
    2.8070   17.1390   16.4790 C   0  0  0  0  0  0  0  0  0  0  0  0
    4.1590   18.5480   19.2790 O   0  0  0  0  0  0  0  0  0  0  0  0
    1.6930   17.3610   18.6960 C   0  0  0  0  0  0  0  0  0  0  0  0
    2.1690   16.4760   19.7480 N   0  0  0  0  0  0  0  0  0  0  0  0
    1.4320   16.1560   20.8160 C   0  0  0  0  0  0  0  0  0  0  0  0
    1.7440   16.3780   16.1270 O   0  0  0  0  0  0  0  0  0  0  0  0
    1.6960   15.6760   14.8600 C   0  0  0  0  0  0  0  0  0  0  0  0
    3.7770   17.2590   15.7390 O   0  0  0  0  0  0  0  0  0  0  0  0
    2.1610   15.4630   21.9550 C   0  0  0  0  0  0  0  0  0  0  0  0
    0.2400   16.4290   20.9330 O   0  0  0  0  0  0  0  0  0  0  0  0
    7.0190   21.5150   16.6390 H   0  0  0  0  0  0  0  0  0  0  0  0
    5.5670   22.4900   14.9200 H   0  0  0  0  0  0  0  0  0  0  0  0
    6.1720   19.7580   18.1040 H   0  0  0  0  0  0  0  0  0  0  0  0
    3.2590   21.7050   14.6770 H   0  0  0  0  0  0  0  0  0  0  0  0
    2.3930   19.9620   16.1450 H   0  0  0  0  0  0  0  0  0  0  0  0
    1.2790   18.2540   19.1450 H   0  0  0  0  0  0  0  0  0  0  0  0
    0.8480   16.9050   18.1990 H   0  0  0  0  0  0  0  0  0  0  0  0
    3.1440   16.2150   19.7310 H   0  0  0  0  0  0  0  0  0  0  0  0
    1.6950   16.3860   14.0330 H   0  0  0  0  0  0  0  0  0  0  0  0
    2.5580   15.0150   14.7570 H   0  0  0  0  0  0  0  0  0  0  0  0
    0.7900   15.0720   14.8030 H   0  0  0  0  0  0  0  0  0  0  0  0
    3.1980   15.7900   21.9560 H   0  0  0  0  0  0  0  0  0  0  0  0
    1.7060   15.7320   22.9080 H   0  0  0  0  0  0  0  0  0  0  0  0
    2.1250   14.3860   21.8170 H   0  0  0  0  0  0  0  0  0  0  0  0
  1  2  2  0  0  0  0
  1  3  1  0  0  0  0
  1 19  1  0  0  0  0
  2  4  1  0  0  0  0
  2 20  1  0  0  0  0
  3  5  2  0  0  0  0
  3 21  1  0  0  0  0
  4  6  2  0  0  0  0
  4 22  1  0  0  0  0
  5  6  1  0  0  0  0
  5  7  1  0  0  0  0
  6 23  1  0  0  0  0
  7  8  1  0  0  0  0
  7 10  2  0  0  0  0
  8  9  1  0  0  0  0
  8 11  1  0  0  0  0
  9 14  1  0  0  0  0
  9 16  2  0  0  0  0
 11 12  1  0  0  0  0
 11 24  1  0  0  0  0
 11 25  1  0  0  0  0
 12 13  1  0  0  0  0
 12 26  1  0  0  0  0
 13 17  1  0  0  0  0
 13 18  2  0  0  0  0
 14 15  1  0  0  0  0
 15 27  1  0  0  0  0
 15 28  1  0  0  0  0
 15 29  1  0  0  0  0
 17 30  1  0  0  0  0
 17 31  1  0  0  0  0
 17 32  1  0  0  0  0
M  END
> <rseq>
1

> <mseq>
47

> <S>
-5.364202

> <rmsd_refine>
2.824087

> <E_conf>
-137.9912

> <E_score1>
-7.938957

> <E_refine>
-25.10589

> <E_score2>
-5.364202

>  <$File>
outputs/pdb_4j58_cleaned.pdb_2024_06_17__22_47_40_V2_BS398_MIN1_/SDF/sdf_db.sdf

> <Rec_index>
1

>  <PLIF_raw>
[[12,16,18],[1617,954,1206],[110,62,81],[1,2,2],[0.5,0.7,0.6]]

> <FP:PLIF>
20 17 26

>  <PLIF_ligidx>
[16,18,12]

$$$$
47
  MOE2022           3D

 32 34  0  0  1  0  0  0  0  0999 V2000
    7.6100   20.6310   18.9250 C   0  0  0  0  0  0  0  0  0  0  0  0
    8.7470   21.3640   18.6160 C   0  0  0  0  0  0  0  0  0  0  0  0
    6.4400   20.7810   18.1680 C   0  0  0  0  0  0  0  0  0  0  0  0
    5.2410   20.0220   18.5190 C   0  0  0  0  0  0  0  0  0  0  0  0
    4.2190   19.8890   17.5910 N   0  0  0  0  0  0  0  0  0  0  0  0
    5.1160   19.4920   19.6210 O   0  0  0  0  0  0  0  0  0  0  0  0
    8.7270   22.2560   17.5530 C   0  0  0  0  0  0  0  0  0  0  0  0
    4.3130   20.5320   16.2540 C   0  0  2  0  0  0  0  0  0  0  0  0
    5.1560   21.8310   16.2700 C   0  0  1  0  0  0  0  0  0  0  0  0
    3.2560   18.7750   17.7200 C   0  0  0  0  0  0  0  0  0  0  0  0
    6.4330   21.6670   17.0810 C   0  0  0  0  0  0  0  0  0  0  0  0
    7.5760   22.4100   16.7910 C   0  0  0  0  0  0  0  0  0  0  0  0
    2.9160   20.7860   15.6350 C   0  0  0  0  0  0  0  0  0  0  0  0
    5.3990   22.3540   14.8610 C   0  0  0  0  0  0  0  0  0  0  0  0
    4.8940   23.4540   14.5560 O   0  0  0  0  0  0  0  0  0  0  0  0
    6.0910   21.6600   14.0800 O   0  5  0  0  0  0  0  0  0  0  0  0
    2.0030   19.5560   15.6650 C   0  0  0  0  0  0  0  0  0  0  0  0
    1.8830   19.0810   17.1130 C   0  0  0  0  0  0  0  0  0  0  0  0
    7.6330   19.9540   19.7400 H   0  0  0  0  0  0  0  0  0  0  0  0
    9.6300   21.2460   19.1880 H   0  0  0  0  0  0  0  0  0  0  0  0
    9.5890   22.8200   17.3210 H   0  0  0  0  0  0  0  0  0  0  0  0
    4.8200   19.8250   15.6130 H   0  0  0  0  0  0  0  0  0  0  0  0
    4.5710   22.5750   16.7930 H   0  0  0  0  0  0  0  0  0  0  0  0
    3.6670   17.9050   17.2290 H   0  0  0  0  0  0  0  0  0  0  0  0
    3.1210   18.4850   18.7520 H   0  0  0  0  0  0  0  0  0  0  0  0
    7.5830   23.1030   15.9890 H   0  0  0  0  0  0  0  0  0  0  0  0
    2.4310   21.5940   16.1860 H   0  0  0  0  0  0  0  0  0  0  0  0
    3.0300   21.1040   14.5980 H   0  0  0  0  0  0  0  0  0  0  0  0
    1.0180   19.8190   15.2780 H   0  0  0  0  0  0  0  0  0  0  0  0
    2.4330   18.7640   15.0500 H   0  0  0  0  0  0  0  0  0  0  0  0
    1.2650   18.1840   17.1530 H   0  0  0  0  0  0  0  0  0  0  0  0
    1.4040   19.8600   17.7070 H   0  0  0  0  0  0  0  0  0  0  0  0
  1  2  1  0  0  0  0
  1  3  2  0  0  0  0
  1 19  1  0  0  0  0
  2  7  2  0  0  0  0
  2 20  1  0  0  0  0
  3  4  1  0  0  0  0
  3 11  1  0  0  0  0
  4  5  1  0  0  0  0
  4  6  2  0  0  0  0
  5  8  1  0  0  0  0
  5 10  1  0  0  0  0
  7 12  1  0  0  0  0
  7 21  1  0  0  0  0
  8  9  1  0  0  0  0
  8 13  1  0  0  0  0
  8 22  1  0  0  0  0
  9 11  1  0  0  0  0
  9 14  1  0  0  0  0
  9 23  1  0  0  0  0
 10 18  1  0  0  0  0
 10 24  1  0  0  0  0
 10 25  1  0  0  0  0
 11 12  2  0  0  0  0
 12 26  1  0  0  0  0
 13 17  1  0  0  0  0
 13 27  1  0  0  0  0
 13 28  1  0  0  0  0
 14 15  2  0  0  0  0
 14 16  1  0  0  0  0
 17 18  1  0  0  0  0
 17 29  1  0  0  0  0
 17 30  1  0  0  0  0
 18 31  1  0  0  0  0
 18 32  1  0  0  0  0
M  CHG  1  16  -1
M  END
> <rseq>
1

> <mseq>
48

> <S>
-4.644027

> <rmsd_refine>
1.623855

> <E_conf>
-73.99931

> <E_score1>
-8.689358

> <E_refine>
-23.86631

> <E_score2>
-4.644027

>  <$File>
outputs/pdb_4j58_cleaned.pdb_2024_06_17__22_47_40_V2_BS398_MIN1_/SDF/sdf_db.sdf

> <Rec_index>
1

>  <PLIF_raw>
[[6,16,16,16,16,2,2,2,2,2,2],[1499,826,829,826,829,1650,1653,1657,1659,1655,1651],[101,54,54,54,54,112,112,112,112,112,112],[4,2,2,7,7,10,10,10,10,10,10],[1.1,6.5,2.3,5.392210577,3.581651132,0.6,0.6,0.6,0.6,0.6,0.6]]

> <FP:PLIF>
6 19 1 16 11 15

>  <PLIF_ligidx>
[[16,16],[16,16],[16,16],[16,16],6,[2,2,2,2,2,2]]

$$$$
60
  MOE2022           3D

 36 37  0  0  1  0  0  0  0  0999 V2000
    2.4500   17.0130   19.7250 C   0  0  0  0  0  0  0  0  0  0  0  0
    3.0950   17.7490   18.7360 C   0  0  0  0  0  0  0  0  0  0  0  0
    2.5250   17.8800   17.4640 C   0  0  0  0  0  0  0  0  0  0  0  0
    3.2290   18.5820   16.3940 C   0  0  0  0  0  0  0  0  0  0  0  0
    1.2180   16.4220   19.4620 C   0  0  0  0  0  0  0  0  0  0  0  0
    1.2840   17.2840   17.2120 C   0  0  0  0  0  0  0  0  0  0  0  0
    0.6350   16.5620   18.2060 C   0  0  0  0  0  0  0  0  0  0  0  0
    3.7920   17.9540   15.5000 O   0  0  0  0  0  0  0  0  0  0  0  0
    3.2750   19.9720   16.3610 N   0  0  0  0  0  0  0  0  0  0  0  0
    2.8970   20.8260   17.4940 C   0  0  0  0  0  0  0  0  0  0  0  0
    4.1350   21.3430   18.2650 C   0  0  2  0  0  0  0  0  0  0  0  0
    4.1310   20.6860   15.4100 C   0  0  0  0  0  0  0  0  0  0  0  0
    5.4360   21.1140   16.0910 C   0  0  0  0  0  0  0  0  0  0  0  0
    3.7400   22.2910   19.2390 O   0  0  0  0  0  0  0  0  0  0  0  0
    5.1890   21.9860   17.3380 C   0  0  2  0  0  0  0  0  0  0  0  0
    6.4930   22.2450   18.1000 C   0  0  0  0  0  0  0  0  0  0  0  0
    7.4120   21.2610   18.1590 O   0  0  0  0  0  0  0  0  0  0  0  0
    6.6910   23.3260   18.6530 O   0  0  0  0  0  0  0  0  0  0  0  0
    8.6910   21.4320   18.8080 C   0  0  0  0  0  0  0  0  0  0  0  0
    2.8950   16.9040   20.6790 H   0  0  0  0  0  0  0  0  0  0  0  0
    4.0260   18.2060   18.9470 H   0  0  0  0  0  0  0  0  0  0  0  0
    0.7260   15.8660   20.2160 H   0  0  0  0  0  0  0  0  0  0  0  0
    0.8400   17.3770   16.2540 H   0  0  0  0  0  0  0  0  0  0  0  0
   -0.3030   16.1110   18.0050 H   0  0  0  0  0  0  0  0  0  0  0  0
    2.3370   21.6740   17.1220 H   0  0  0  0  0  0  0  0  0  0  0  0
    2.2140   20.3210   18.1580 H   0  0  0  0  0  0  0  0  0  0  0  0
    4.5920   20.4900   18.7670 H   0  0  0  0  0  0  0  0  0  0  0  0
    4.3390   20.0890   14.5330 H   0  0  0  0  0  0  0  0  0  0  0  0
    3.6110   21.5600   15.0410 H   0  0  0  0  0  0  0  0  0  0  0  0
    5.9600   20.2060   16.3920 H   0  0  0  0  0  0  0  0  0  0  0  0
    6.0560   21.6620   15.3800 H   0  0  0  0  0  0  0  0  0  0  0  0
    3.1610   22.9360   18.8250 H   0  0  0  0  0  0  0  0  0  0  0  0
    4.7990   22.9450   16.9920 H   0  0  0  0  0  0  0  0  0  0  0  0
    8.5530   21.7800   19.8310 H   0  0  0  0  0  0  0  0  0  0  0  0
    9.2290   20.4840   18.8330 H   0  0  0  0  0  0  0  0  0  0  0  0
    9.2970   22.1590   18.2680 H   0  0  0  0  0  0  0  0  0  0  0  0
  1  2  1  0  0  0  0
  1  5  2  0  0  0  0
  1 20  1  0  0  0  0
  2  3  2  0  0  0  0
  2 21  1  0  0  0  0
  3  4  1  0  0  0  0
  3  6  1  0  0  0  0
  4  8  2  0  0  0  0
  4  9  1  0  0  0  0
  5  7  1  0  0  0  0
  5 22  1  0  0  0  0
  6  7  2  0  0  0  0
  6 23  1  0  0  0  0
  7 24  1  0  0  0  0
  9 10  1  0  0  0  0
  9 12  1  0  0  0  0
 10 11  1  0  0  0  0
 10 25  1  0  0  0  0
 10 26  1  0  0  0  0
 11 14  1  0  0  0  0
 11 15  1  0  0  0  0
 11 27  1  0  0  0  0
 12 13  1  0  0  0  0
 12 28  1  0  0  0  0
 12 29  1  0  0  0  0
 13 15  1  0  0  0  0
 13 30  1  0  0  0  0
 13 31  1  0  0  0  0
 14 32  1  0  0  0  0
 15 16  1  0  0  0  0
 15 33  1  0  0  0  0
 16 17  1  0  0  0  0
 16 18  2  0  0  0  0
 17 19  1  0  0  0  0
 19 34  1  0  0  0  0
 19 35  1  0  0  0  0
 19 36  1  0  0  0  0
M  END
> <rseq>
1

> <mseq>
61

> <S>
-5.061078

> <rmsd_refine>
1.444562

> <E_conf>
18.48516

> <E_score1>
-8.15385

> <E_refine>
-23.64287

> <E_score2>
-5.061078

>  <$File>
outputs/pdb_4j58_cleaned.pdb_2024_06_17__22_47_40_V2_BS398_MIN1_/SDF/sdf_db.sdf

> <Rec_index>
1

>  <PLIF_raw>
[[],[],[],[],[]]

>  <PLIF_ligidx>
[]

$$$$
61
  MOE2022           3D

 28 30  0  0  0  0  0  0  0  0999 V2000
    6.4740   20.0860   19.1680 C   0  0  0  0  0  0  0  0  0  0  0  0
    7.5310   20.8960   18.8410 C   0  0  0  0  0  0  0  0  0  0  0  0
    5.4190   19.8820   18.2490 C   0  0  0  0  0  0  0  0  0  0  0  0
    4.3350   19.0340   18.5490 C   0  0  0  0  0  0  0  0  0  0  0  0
    3.3510   18.8180   17.6100 C   0  0  0  0  0  0  0  0  0  0  0  0
    7.5740   21.5510   17.5960 C   0  0  0  0  0  0  0  0  0  0  0  0
    8.7470   22.4530   17.3000 C   0  0  0  0  0  0  0  0  0  0  0  0
    6.5420   21.3930   16.6760 C   0  0  0  0  0  0  0  0  0  0  0  0
    3.4590   19.5030   16.3680 C   0  0  0  0  0  0  0  0  0  0  0  0
    6.5570   22.1170   15.4080 C   0  0  0  0  0  0  0  0  0  0  0  0
    2.2410   17.9040   17.8670 C   0  0  0  0  0  0  0  0  0  0  0  0
    7.3140   21.7230   14.4750 O   0  0  0  0  0  0  0  0  0  0  0  0
    5.8360   23.1390   15.2740 O   0  5  0  0  0  0  0  0  0  0  0  0
    5.4570   20.5270   16.9920 C   0  0  0  0  0  0  0  0  0  0  0  0
    4.4490   20.3010   16.0820 N   0  0  0  0  0  0  0  0  0  0  0  0
    1.1240   17.8030   17.0970 N   0  0  0  0  0  0  0  0  0  0  0  0
    2.1460   17.0120   18.8810 C   0  0  0  0  0  0  0  0  0  0  0  0
    0.9850   16.3960   18.6980 N   0  0  0  0  0  0  0  0  0  0  0  0
    0.3580   16.8750   17.6160 N   0  0  0  0  0  0  0  0  0  0  0  0
    6.4480   19.6070   20.1100 H   0  0  0  0  0  0  0  0  0  0  0  0
    8.3220   21.0360   19.5320 H   0  0  0  0  0  0  0  0  0  0  0  0
    4.2920   18.5620   19.4950 H   0  0  0  0  0  0  0  0  0  0  0  0
    9.2020   22.1950   16.3440 H   0  0  0  0  0  0  0  0  0  0  0  0
    8.4070   23.4860   17.2600 H   0  0  0  0  0  0  0  0  0  0  0  0
    9.5130   22.3690   18.0700 H   0  0  0  0  0  0  0  0  0  0  0  0
    2.7090   19.3630   15.6330 H   0  0  0  0  0  0  0  0  0  0  0  0
    2.7970   16.7760   19.6830 H   0  0  0  0  0  0  0  0  0  0  0  0
    0.5970   15.6430   19.2910 H   0  0  0  0  0  0  0  0  0  0  0  0
  1  2  2  0  0  0  0
  1  3  1  0  0  0  0
  1 20  1  0  0  0  0
  2  6  1  0  0  0  0
  2 21  1  0  0  0  0
  3  4  1  0  0  0  0
  3 14  2  0  0  0  0
  4  5  2  0  0  0  0
  4 22  1  0  0  0  0
  5  9  1  0  0  0  0
  5 11  1  0  0  0  0
  6  7  1  0  0  0  0
  6  8  2  0  0  0  0
  7 23  1  0  0  0  0
  7 24  1  0  0  0  0
  7 25  1  0  0  0  0
  8 10  1  0  0  0  0
  8 14  1  0  0  0  0
  9 15  2  0  0  0  0
  9 26  1  0  0  0  0
 10 12  2  0  0  0  0
 10 13  1  0  0  0  0
 11 16  1  0  0  0  0
 11 17  2  0  0  0  0
 14 15  1  0  0  0  0
 16 19  2  0  0  0  0
 17 18  1  0  0  0  0
 17 27  1  0  0  0  0
 18 19  1  0  0  0  0
 18 28  1  0  0  0  0
M  CHG  1  13  -1
M  END
> <rseq>
1

> <mseq>
62

> <S>
-4.95756

> <rmsd_refine>
1.118306

> <E_conf>
-66.11314

> <E_score1>
-8.511094

> <E_refine>
-27.37739

> <E_score2>
-4.95756

>  <$File>
outputs/pdb_4j58_cleaned.pdb_2024_06_17__22_47_40_V2_BS398_MIN1_/SDF/sdf_db.sdf

> <Rec_index>
1

>  <PLIF_raw>
[[12,12,12,2,2,2,2,2,2],[826,826,829,1651,1655,1659,1657,1653,1650],[54,54,54,112,112,112,112,112,112],[2,7,7,10,10,10,10,10,10],[5.9,5.400537981,2.149579864,0.6,0.6,0.6,0.6,0.6,0.6]]

> <FP:PLIF>
6 19 1 16 15

>  <PLIF_ligidx>
[12,12,[12,12],12,[2,2,2,2,2,2]]

$$$$
62
  MOE2022           3D

 31 32  0  0  1  0  0  0  0  0999 V2000
    7.5820   20.6660   19.0830 C   0  0  0  0  0  0  0  0  0  0  0  0
    8.6200   21.4840   18.7100 C   0  0  0  0  0  0  0  0  0  0  0  0
    6.4280   20.5490   18.2660 C   0  0  0  0  0  0  0  0  0  0  0  0
    5.3640   19.6830   18.6080 C   0  0  0  0  0  0  0  0  0  0  0  0
    4.2750   19.5110   17.7730 C   0  0  0  0  0  0  0  0  0  0  0  0
    8.5450   22.2260   17.5150 C   0  0  0  0  0  0  0  0  0  0  0  0
    3.2640   18.4970   18.0900 C   0  0  0  0  0  0  0  0  0  0  0  0
    2.2360   18.2950   17.2070 N   0  0  0  0  0  0  0  0  0  0  0  0
    3.3240   17.7710   19.0810 O   0  0  0  0  0  0  0  0  0  0  0  0
    7.4350   22.1390   16.7100 C   0  0  0  0  0  0  0  0  0  0  0  0
    6.3540   21.2950   17.0660 C   0  0  0  0  0  0  0  0  0  0  0  0
    2.0190   16.9380   16.6900 C   0  0  2  0  0  0  0  0  0  0  0  0
    3.1120   16.5750   15.6940 C   0  0  0  0  0  0  0  0  0  0  0  0
    5.2070   21.1600   16.2450 C   0  0  0  0  0  0  0  0  0  0  0  0
    4.2000   20.2900   16.5830 C   0  0  0  0  0  0  0  0  0  0  0  0
    0.6100   16.7940   16.0940 C   0  0  0  0  0  0  0  0  0  0  0  0
    3.2460   17.2930   14.6760 O   0  5  0  0  0  0  0  0  0  0  0  0
    0.3360   15.4680   15.6860 O   0  0  0  0  0  0  0  0  0  0  0  0
    3.8560   15.6120   15.9770 O   0  0  0  0  0  0  0  0  0  0  0  0
    7.6400   20.1060   19.9800 H   0  0  0  0  0  0  0  0  0  0  0  0
    9.4860   21.5620   19.3150 H   0  0  0  0  0  0  0  0  0  0  0  0
    5.4280   19.1380   19.5120 H   0  0  0  0  0  0  0  0  0  0  0  0
    9.3550   22.8490   17.2420 H   0  0  0  0  0  0  0  0  0  0  0  0
    2.1240   19.0110   16.4750 H   0  0  0  0  0  0  0  0  0  0  0  0
    7.3830   22.7020   15.8150 H   0  0  0  0  0  0  0  0  0  0  0  0
    2.0800   16.2420   17.5160 H   0  0  0  0  0  0  0  0  0  0  0  0
    5.1360   21.7310   15.3560 H   0  0  0  0  0  0  0  0  0  0  0  0
    3.3650   20.1950   15.9390 H   0  0  0  0  0  0  0  0  0  0  0  0
   -0.1270   17.0800   16.8450 H   0  0  0  0  0  0  0  0  0  0  0  0
    0.4970   17.4570   15.2360 H   0  0  0  0  0  0  0  0  0  0  0  0
    0.7410   14.8640   16.3170 H   0  0  0  0  0  0  0  0  0  0  0  0
  1  2  1  0  0  0  0
  1  3  2  0  0  0  0
  1 20  1  0  0  0  0
  2  6  2  0  0  0  0
  2 21  1  0  0  0  0
  3  4  1  0  0  0  0
  3 11  1  0  0  0  0
  4  5  2  0  0  0  0
  4 22  1  0  0  0  0
  5  7  1  0  0  0  0
  5 15  1  0  0  0  0
  6 10  1  0  0  0  0
  6 23  1  0  0  0  0
  7  8  1  0  0  0  0
  7  9  2  0  0  0  0
  8 12  1  0  0  0  0
  8 24  1  0  0  0  0
 10 11  2  0  0  0  0
 10 25  1  0  0  0  0
 11 14  1  0  0  0  0
 12 13  1  0  0  0  0
 12 16  1  0  0  0  0
 12 26  1  0  0  0  0
 13 17  1  0  0  0  0
 13 19  2  0  0  0  0
 14 15  2  0  0  0  0
 14 27  1  0  0  0  0
 15 28  1  0  0  0  0
 16 18  1  0  0  0  0
 16 29  1  0  0  0  0
 16 30  1  0  0  0  0
 18 31  1  0  0  0  0
M  CHG  1  17  -1
M  END
> <rseq>
1

> <mseq>
63

> <S>
-5.26136

> <rmsd_refine>
2.487208

> <E_conf>
-20.22792

> <E_score1>
-7.580211

> <E_refine>
-26.89098

> <E_score2>
-5.26136

>  <$File>
outputs/pdb_4j58_cleaned.pdb_2024_06_17__22_47_40_V2_BS398_MIN1_/SDF/sdf_db.sdf

> <Rec_index>
1

>  <PLIF_raw>
[[18,19,17,17,2,2,2,2,2,2],[1071,1067,823,826,1650,1653,1657,1659,1655,1651],[71,71,54,54,112,112,112,112,112,112],[3,4,7,7,10,10,10,10,10,10],[0.9,0.5,1.078758983,0.5483752934,0.7,0.7,0.7,0.7,0.7,0.7]]

> <FP:PLIF>
1 7 34 15

>  <PLIF_ligidx>
[[17,17],18,19,[2,2,2,2,2,2]]

$$$$
63
  MOE2022           3D

 37 37  0  0  1  0  0  0  0  0999 V2000
    0.7400   16.3150   21.6410 O   0  0  0  0  0  0  0  0  0  0  0  0
    0.6780   15.7540   20.5260 C   0  0  0  0  0  0  0  0  0  0  0  0
   -0.2100   14.9320   20.2130 O   0  5  0  0  0  0  0  0  0  0  0  0
    1.7080   16.0790   19.4600 C   0  0  1  0  0  0  0  0  0  0  0  0
    1.1800   17.0000   18.3660 C   0  0  0  0  0  0  0  0  0  0  0  0
    2.9350   16.7390   19.8910 N   0  0  0  0  0  0  0  0  0  0  0  0
    2.2690   17.9260   18.1080 N   0  0  0  0  0  0  0  0  0  0  0  0
    3.2230   17.8040   19.0880 C   0  0  0  0  0  0  0  0  0  0  0  0
    2.1000   19.1470   17.3290 C   0  0  0  0  0  0  0  0  0  0  0  0
    4.1950   18.5490   19.2340 O   0  0  0  0  0  0  0  0  0  0  0  0
    2.7120   19.0550   15.9230 C   0  0  0  0  0  0  0  0  0  0  0  0
    2.1490   17.9140   15.0580 C   0  0  1  0  0  0  0  0  0  0  0  0
    0.6860   18.0380   14.9360 N   0  3  0  0  0  0  0  0  0  0  0  0
    2.8240   17.9540   13.6760 C   0  0  0  0  0  0  0  0  0  0  0  0
    2.7400   16.6610   12.8290 C   0  0  2  0  0  0  0  0  0  0  0  0
    3.6160   16.7750   11.5690 C   0  0  0  0  0  0  0  0  0  0  0  0
    3.7360   17.9000   11.0340 O   0  5  0  0  0  0  0  0  0  0  0  0
    1.3100   16.2580   12.4320 C   0  0  0  0  0  0  0  0  0  0  0  0
    4.1870   15.7340   11.1800 O   0  0  0  0  0  0  0  0  0  0  0  0
    1.9830   15.1540   18.9780 H   0  0  0  0  0  0  0  0  0  0  0  0
    0.9030   16.4400   17.4840 H   0  0  0  0  0  0  0  0  0  0  0  0
    0.3090   17.5380   18.7100 H   0  0  0  0  0  0  0  0  0  0  0  0
    3.2370   16.7260   20.8770 H   0  0  0  0  0  0  0  0  0  0  0  0
    1.0490   19.3960   17.2650 H   0  0  0  0  0  0  0  0  0  0  0  0
    2.5480   19.9800   17.8550 H   0  0  0  0  0  0  0  0  0  0  0  0
    2.5480   20.0070   15.4170 H   0  0  0  0  0  0  0  0  0  0  0  0
    3.7880   18.9130   16.0380 H   0  0  0  0  0  0  0  0  0  0  0  0
    2.3920   16.9650   15.5390 H   0  0  0  0  0  0  0  0  0  0  0  0
    0.4610   18.9180   14.4950 H   0  0  0  0  0  0  0  0  0  0  0  0
    0.3370   17.2820   14.3660 H   0  0  0  0  0  0  0  0  0  0  0  0
    0.2660   17.9950   15.8540 H   0  0  0  0  0  0  0  0  0  0  0  0
    2.4140   18.7890   13.1050 H   0  0  0  0  0  0  0  0  0  0  0  0
    3.8840   18.1580   13.8280 H   0  0  0  0  0  0  0  0  0  0  0  0
    3.1520   15.8480   13.4300 H   0  0  0  0  0  0  0  0  0  0  0  0
    0.8040   17.0970   11.9520 H   0  0  0  0  0  0  0  0  0  0  0  0
    1.3520   15.4260   11.7280 H   0  0  0  0  0  0  0  0  0  0  0  0
    0.7490   15.9260   13.3040 H   0  0  0  0  0  0  0  0  0  0  0  0
  1  2  2  0  0  0  0
  2  3  1  0  0  0  0
  2  4  1  0  0  0  0
  4  5  1  0  0  0  0
  4  6  1  0  0  0  0
  4 20  1  0  0  0  0
  5  7  1  0  0  0  0
  5 21  1  0  0  0  0
  5 22  1  0  0  0  0
  6  8  1  0  0  0  0
  6 23  1  0  0  0  0
  7  8  1  0  0  0  0
  7  9  1  0  0  0  0
  8 10  2  0  0  0  0
  9 11  1  0  0  0  0
  9 24  1  0  0  0  0
  9 25  1  0  0  0  0
 11 12  1  0  0  0  0
 11 26  1  0  0  0  0
 11 27  1  0  0  0  0
 12 13  1  0  0  0  0
 12 14  1  0  0  0  0
 12 28  1  0  0  0  0
 13 29  1  0  0  0  0
 13 30  1  0  0  0  0
 13 31  1  0  0  0  0
 14 15  1  0  0  0  0
 14 32  1  0  0  0  0
 14 33  1  0  0  0  0
 15 16  1  0  0  0  0
 15 18  1  0  0  0  0
 15 34  1  0  0  0  0
 16 17  1  0  0  0  0
 16 19  2  0  0  0  0
 18 35  1  0  0  0  0
 18 36  1  0  0  0  0
 18 37  1  0  0  0  0
M  CHG  1   3  -1
M  CHG  1  13   1
M  CHG  1  17  -1
M  END
> <rseq>
1

> <mseq>
64

> <S>
-4.849444

> <rmsd_refine>
2.439034

> <E_conf>
-243.3963

> <E_score1>
-8.667546

> <E_refine>
-26.41043

> <E_score2>
-4.849444

>  <$File>
outputs/pdb_4j58_cleaned.pdb_2024_06_17__22_47_40_V2_BS398_MIN1_/SDF/sdf_db.sdf

> <Rec_index>
1

>  <PLIF_raw>
[[1,1,3,1,1,3,3,17,17,19],[1206,1501,1212,1206,1212,1206,1212,823,829,823],[81,101,81,81,81,81,81,54,54,54],[2,4,2,7,7,7,7,7,7,7],[4.2,0.6,3.3,3.073609218,0.9068829334,1.966604356,5.406662023,2.830562032,1.891100925,3.733980066]]

> <FP:PLIF>
1 16 17 18 24 25 11

>  <PLIF_ligidx>
[[17,17,19],19,[1,3],[1,3],[1,1,3,3],3,1]

$$$$
64
  MOE2022           3D

 43 43  0  0  1  0  0  0  0  0999 V2000
    8.7240   21.0850   18.7530 C   0  0  0  0  0  0  0  0  0  0  0  0
    7.4590   21.1150   17.8880 C   0  0  0  0  0  0  0  0  0  0  0  0
    7.0960   22.5820   17.6060 C   0  0  0  0  0  0  0  0  0  0  0  0
    6.3340   20.3500   18.6190 C   0  0  0  0  0  0  0  0  0  0  0  0
    4.9820   20.4000   17.9050 C   0  0  0  0  0  0  0  0  0  0  0  0
    7.7610   20.4840   16.6640 O   0  0  0  0  0  0  0  0  0  0  0  0
    4.6960   19.4170   17.0380 N   0  0  0  0  0  0  0  0  0  0  0  0
    4.2150   21.3290   18.1480 O   0  0  0  0  0  0  0  0  0  0  0  0
    3.4260   19.3630   16.2820 C   0  0  2  0  0  0  0  0  0  0  0  0
    2.2220   19.0920   17.1650 C   0  0  0  0  0  0  0  0  0  0  0  0
    3.4620   18.3770   15.1290 C   0  0  0  0  0  0  0  0  0  0  0  0
    1.9470   17.8030   17.4600 N   0  0  0  0  0  0  0  0  0  0  0  0
    1.5130   20.0210   17.5470 O   0  0  0  0  0  0  0  0  0  0  0  0
    0.8350   17.4650   18.3640 C   0  0  0  0  0  0  0  0  0  0  0  0
    1.0210   16.2210   19.2530 C   0  0  0  0  0  0  0  0  0  0  0  0
    3.0970   17.1040   15.3920 N   0  0  0  0  0  0  0  0  0  0  0  0
    2.5840   16.7160   16.7100 C   0  0  0  0  0  0  0  0  0  0  0  0
    2.2000   16.3140   20.2220 C   0  0  0  0  0  0  0  0  0  0  0  0
    3.7830   18.7450   13.9990 O   0  0  0  0  0  0  0  0  0  0  0  0
    3.0060   16.0800   14.3450 C   0  0  0  0  0  0  0  0  0  0  0  0
    9.0280   20.0540   18.9360 H   0  0  0  0  0  0  0  0  0  0  0  0
    9.5360   21.6100   18.2510 H   0  0  0  0  0  0  0  0  0  0  0  0
    8.5310   21.5770   19.7050 H   0  0  0  0  0  0  0  0  0  0  0  0
    6.2610   22.6380   16.9070 H   0  0  0  0  0  0  0  0  0  0  0  0
    6.8180   23.0840   18.5330 H   0  0  0  0  0  0  0  0  0  0  0  0
    7.9490   23.1000   17.1640 H   0  0  0  0  0  0  0  0  0  0  0  0
    6.6320   19.3110   18.7510 H   0  0  0  0  0  0  0  0  0  0  0  0
    6.2040   20.7770   19.6140 H   0  0  0  0  0  0  0  0  0  0  0  0
    8.2410   19.6730   16.8560 H   0  0  0  0  0  0  0  0  0  0  0  0
    5.3830   18.6970   16.8730 H   0  0  0  0  0  0  0  0  0  0  0  0
    3.2850   20.3440   15.8480 H   0  0  0  0  0  0  0  0  0  0  0  0
    0.6500   18.3010   19.0190 H   0  0  0  0  0  0  0  0  0  0  0  0
   -0.0690   17.3520   17.7800 H   0  0  0  0  0  0  0  0  0  0  0  0
    0.1090   16.0910   19.8370 H   0  0  0  0  0  0  0  0  0  0  0  0
    1.1370   15.3400   18.6290 H   0  0  0  0  0  0  0  0  0  0  0  0
    3.3750   16.2760   17.3000 H   0  0  0  0  0  0  0  0  0  0  0  0
    1.8650   15.9200   16.5760 H   0  0  0  0  0  0  0  0  0  0  0  0
    2.0420   17.1410   20.9050 H   0  0  0  0  0  0  0  0  0  0  0  0
    2.2710   15.3940   20.8020 H   0  0  0  0  0  0  0  0  0  0  0  0
    3.1290   16.4750   19.6770 H   0  0  0  0  0  0  0  0  0  0  0  0
    3.4670   16.3880   13.4160 H   0  0  0  0  0  0  0  0  0  0  0  0
    3.4910   15.1640   14.6510 H   0  0  0  0  0  0  0  0  0  0  0  0
    1.9750   15.8420   14.1240 H   0  0  0  0  0  0  0  0  0  0  0  0
  1  2  1  0  0  0  0
  1 21  1  0  0  0  0
  1 22  1  0  0  0  0
  1 23  1  0  0  0  0
  2  3  1  0  0  0  0
  2  4  1  0  0  0  0
  2  6  1  0  0  0  0
  3 24  1  0  0  0  0
  3 25  1  0  0  0  0
  3 26  1  0  0  0  0
  4  5  1  0  0  0  0
  4 27  1  0  0  0  0
  4 28  1  0  0  0  0
  5  7  1  0  0  0  0
  5  8  2  0  0  0  0
  6 29  1  0  0  0  0
  7  9  1  0  0  0  0
  7 30  1  0  0  0  0
  9 10  1  0  0  0  0
  9 11  1  0  0  0  0
  9 31  1  0  0  0  0
 10 12  1  0  0  0  0
 10 13  2  0  0  0  0
 11 16  1  0  0  0  0
 11 19  2  0  0  0  0
 12 14  1  0  0  0  0
 12 17  1  0  0  0  0
 14 15  1  0  0  0  0
 14 32  1  0  0  0  0
 14 33  1  0  0  0  0
 15 18  1  0  0  0  0
 15 34  1  0  0  0  0
 15 35  1  0  0  0  0
 16 17  1  0  0  0  0
 16 20  1  0  0  0  0
 17 36  1  0  0  0  0
 17 37  1  0  0  0  0
 18 38  1  0  0  0  0
 18 39  1  0  0  0  0
 18 40  1  0  0  0  0
 20 41  1  0  0  0  0
 20 42  1  0  0  0  0
 20 43  1  0  0  0  0
M  END
> <rseq>
1

> <mseq>
65

> <S>
-6.075965

> <rmsd_refine>
1.326213

> <E_conf>
-100.934

> <E_score1>
-7.31202

> <E_refine>
-29.2085

> <E_score2>
-6.075965

>  <$File>
outputs/pdb_4j58_cleaned.pdb_2024_06_17__22_47_40_V2_BS398_MIN1_/SDF/sdf_db.sdf

> <Rec_index>
1

>  <PLIF_raw>
[[7,13],[953,1515],[62,102],[1,4],[2.6,0.5]]

> <FP:PLIF>
28 35 36

>  <PLIF_ligidx>
[7,7,13]

$$$$
65
  MOE2022           3D

 41 41  0  0  1  0  0  0  0  0999 V2000
    8.6290   20.9500   18.7770 C   0  0  0  0  0  0  0  0  0  0  0  0
    7.4000   21.0670   17.8700 C   0  0  0  0  0  0  0  0  0  0  0  0
    7.1130   22.5570   17.6230 C   0  0  0  0  0  0  0  0  0  0  0  0
    6.2140   20.3310   18.5310 C   0  0  0  0  0  0  0  0  0  0  0  0
    4.8920   20.4610   17.7710 C   0  0  0  0  0  0  0  0  0  0  0  0
    7.7220   20.4640   16.6380 O   0  0  0  0  0  0  0  0  0  0  0  0
    4.5840   19.5150   16.8690 N   0  0  0  0  0  0  0  0  0  0  0  0
    4.1590   21.4170   18.0160 O   0  0  0  0  0  0  0  0  0  0  0  0
    3.3150   19.5330   16.1110 C   0  0  2  0  0  0  0  0  0  0  0  0
    2.1370   19.0390   16.9310 C   0  0  0  0  0  0  0  0  0  0  0  0
    3.4000   18.8160   14.7750 C   0  0  0  0  0  0  0  0  0  0  0  0
    1.8340   17.7270   16.8750 N   0  0  0  0  0  0  0  0  0  0  0  0
    1.4750   19.8270   17.6020 O   0  0  0  0  0  0  0  0  0  0  0  0
    0.7740   17.1540   17.7130 C   0  0  0  0  0  0  0  0  0  0  0  0
   -0.6070   17.1960   17.0500 C   0  0  0  0  0  0  0  0  0  0  0  0
    3.0020   17.5280   14.7230 N   0  0  0  0  0  0  0  0  0  0  0  0
    2.4460   16.8440   15.8880 C   0  0  1  0  0  0  0  0  0  0  0  0
    3.7930   19.4140   13.7730 O   0  0  0  0  0  0  0  0  0  0  0  0
    2.9710   16.7720   13.4660 C   0  0  0  0  0  0  0  0  0  0  0  0
    3.4430   16.0360   16.4990 O   0  0  0  0  0  0  0  0  0  0  0  0
    8.8700   19.9010   18.9490 H   0  0  0  0  0  0  0  0  0  0  0  0
    9.4870   21.4400   18.3160 H   0  0  0  0  0  0  0  0  0  0  0  0
    8.4270   21.4340   19.7320 H   0  0  0  0  0  0  0  0  0  0  0  0
    6.3080   22.6740   16.8970 H   0  0  0  0  0  0  0  0  0  0  0  0
    6.8240   23.0420   18.5560 H   0  0  0  0  0  0  0  0  0  0  0  0
    8.0050   23.0490   17.2300 H   0  0  0  0  0  0  0  0  0  0  0  0
    6.4610   19.2760   18.6420 H   0  0  0  0  0  0  0  0  0  0  0  0
    6.0640   20.7320   19.5340 H   0  0  0  0  0  0  0  0  0  0  0  0
    8.1160   19.6060   16.8180 H   0  0  0  0  0  0  0  0  0  0  0  0
    5.2230   18.7470   16.7240 H   0  0  0  0  0  0  0  0  0  0  0  0
    3.1120   20.5710   15.8770 H   0  0  0  0  0  0  0  0  0  0  0  0
    1.0200   16.1300   17.9630 H   0  0  0  0  0  0  0  0  0  0  0  0
    0.7340   17.6700   18.6630 H   0  0  0  0  0  0  0  0  0  0  0  0
   -0.6050   16.6360   16.1150 H   0  0  0  0  0  0  0  0  0  0  0  0
   -1.3560   16.7600   17.7110 H   0  0  0  0  0  0  0  0  0  0  0  0
   -0.8970   18.2260   16.8380 H   0  0  0  0  0  0  0  0  0  0  0  0
    1.6820   16.1620   15.5350 H   0  0  0  0  0  0  0  0  0  0  0  0
    1.9690   16.7350   13.0610 H   0  0  0  0  0  0  0  0  0  0  0  0
    3.6090   17.2020   12.7070 H   0  0  0  0  0  0  0  0  0  0  0  0
    3.2980   15.7510   13.6140 H   0  0  0  0  0  0  0  0  0  0  0  0
    3.0300   15.4670   17.1690 H   0  0  0  0  0  0  0  0  0  0  0  0
  1  2  1  0  0  0  0
  1 21  1  0  0  0  0
  1 22  1  0  0  0  0
  1 23  1  0  0  0  0
  2  3  1  0  0  0  0
  2  4  1  0  0  0  0
  2  6  1  0  0  0  0
  3 24  1  0  0  0  0
  3 25  1  0  0  0  0
  3 26  1  0  0  0  0
  4  5  1  0  0  0  0
  4 27  1  0  0  0  0
  4 28  1  0  0  0  0
  5  7  1  0  0  0  0
  5  8  2  0  0  0  0
  6 29  1  0  0  0  0
  7  9  1  0  0  0  0
  7 30  1  0  0  0  0
  9 10  1  0  0  0  0
  9 11  1  0  0  0  0
  9 31  1  0  0  0  0
 10 12  1  0  0  0  0
 10 13  2  0  0  0  0
 11 16  1  0  0  0  0
 11 18  2  0  0  0  0
 12 14  1  0  0  0  0
 12 17  1  0  0  0  0
 14 15  1  0  0  0  0
 14 32  1  0  0  0  0
 14 33  1  0  0  0  0
 15 34  1  0  0  0  0
 15 35  1  0  0  0  0
 15 36  1  0  0  0  0
 16 17  1  0  0  0  0
 16 19  1  0  0  0  0
 17 20  1  0  0  0  0
 17 37  1  0  0  0  0
 19 38  1  0  0  0  0
 19 39  1  0  0  0  0
 19 40  1  0  0  0  0
 20 41  1  0  0  0  0
M  END
> <rseq>
1

> <mseq>
66

> <S>
-5.375228

> <rmsd_refine>
1.29156

> <E_conf>
-198.7207

> <E_score1>
-7.639051

> <E_refine>
-29.88771

> <E_score2>
-5.375228

>  <$File>
outputs/pdb_4j58_cleaned.pdb_2024_06_17__22_47_40_V2_BS398_MIN1_/SDF/sdf_db.sdf

> <Rec_index>
1

>  <PLIF_raw>
[[7,20,13,20],[953,1071,1515,954],[62,71,102,62],[1,3,4,2],[2.1,0.8,0.5,1.5]]

> <FP:PLIF>
28 35 20 23 7 36

>  <PLIF_ligidx>
[7,7,20,20,20,13]

$$$$
66
  MOE2022           3D

 37 38  0  0  1  0  0  0  0  0999 V2000
    6.7000   21.7800   19.4950 C   0  0  0  0  0  0  0  0  0  0  0  0
    5.7010   22.5690   18.9410 C   0  0  0  0  0  0  0  0  0  0  0  0
    6.5930   20.3950   19.4460 C   0  0  0  0  0  0  0  0  0  0  0  0
    5.5010   19.7980   18.8200 C   0  0  0  0  0  0  0  0  0  0  0  0
    4.6030   21.9620   18.3330 C   0  0  0  0  0  0  0  0  0  0  0  0
    3.6270   22.7800   17.8360 O   0  0  0  0  0  0  0  0  0  0  0  0
    4.4960   20.5670   18.2290 C   0  0  0  0  0  0  0  0  0  0  0  0
    3.3360   19.9260   17.4530 C   0  0  2  0  0  0  0  0  0  0  0  0
    3.2750   18.4460   17.5000 N   0  0  0  0  0  0  0  0  0  0  0  0
    3.3930   20.2840   15.9550 C   0  0  0  0  0  0  0  0  0  0  0  0
    3.4440   18.9580   15.2480 C   0  0  0  0  0  0  0  0  0  0  0  0
    3.4160   17.9200   16.2310 C   0  0  0  0  0  0  0  0  0  0  0  0
    3.5150   16.7090   16.0170 O   0  0  0  0  0  0  0  0  0  0  0  0
    2.6080   17.7970   18.6550 C   0  0  0  0  0  0  0  0  0  0  0  0
    3.4840   18.7690   13.9010 C   0  0  0  0  0  0  0  0  0  0  0  0
    2.0260   16.3880   18.4600 C   0  0  0  0  0  0  0  0  0  0  0  0
    1.1890   15.8890   19.6400 C   0  0  0  0  0  0  0  0  0  0  0  0
    3.4850   19.8180   13.0110 N   0  0  0  0  0  0  0  0  0  0  0  0
    0.2110   15.0280   19.3590 N   0  0  0  0  0  0  0  0  0  0  0  0
    1.3880   16.2820   20.7870 O   0  0  0  0  0  0  0  0  0  0  0  0
    7.5400   22.2300   19.9590 H   0  0  0  0  0  0  0  0  0  0  0  0
    5.7710   23.6260   18.9800 H   0  0  0  0  0  0  0  0  0  0  0  0
    7.3490   19.7910   19.8780 H   0  0  0  0  0  0  0  0  0  0  0  0
    5.4490   18.7470   18.7930 H   0  0  0  0  0  0  0  0  0  0  0  0
    2.8620   22.2640   17.5180 H   0  0  0  0  0  0  0  0  0  0  0  0
    2.4080   20.3130   17.8530 H   0  0  0  0  0  0  0  0  0  0  0  0
    2.5130   20.8370   15.6570 H   0  0  0  0  0  0  0  0  0  0  0  0
    4.2680   20.8710   15.7070 H   0  0  0  0  0  0  0  0  0  0  0  0
    3.2820   17.7920   19.5010 H   0  0  0  0  0  0  0  0  0  0  0  0
    1.7770   18.4230   18.9480 H   0  0  0  0  0  0  0  0  0  0  0  0
    3.5090   17.8080   13.4510 H   0  0  0  0  0  0  0  0  0  0  0  0
    1.3880   16.4000   17.5750 H   0  0  0  0  0  0  0  0  0  0  0  0
    2.8340   15.6830   18.2850 H   0  0  0  0  0  0  0  0  0  0  0  0
    3.3590   20.7860   13.3480 H   0  0  0  0  0  0  0  0  0  0  0  0
    3.4120   19.6400   11.9970 H   0  0  0  0  0  0  0  0  0  0  0  0
    0.0850   14.7110   18.4080 H   0  0  0  0  0  0  0  0  0  0  0  0
   -0.4260   14.7370   20.0830 H   0  0  0  0  0  0  0  0  0  0  0  0
  1  2  1  0  0  0  0
  1  3  2  0  0  0  0
  1 21  1  0  0  0  0
  2  5  2  0  0  0  0
  2 22  1  0  0  0  0
  3  4  1  0  0  0  0
  3 23  1  0  0  0  0
  4  7  2  0  0  0  0
  4 24  1  0  0  0  0
  5  6  1  0  0  0  0
  5  7  1  0  0  0  0
  6 25  1  0  0  0  0
  7  8  1  0  0  0  0
  8  9  1  0  0  0  0
  8 10  1  0  0  0  0
  8 26  1  0  0  0  0
  9 12  1  0  0  0  0
  9 14  1  0  0  0  0
 10 11  1  0  0  0  0
 10 27  1  0  0  0  0
 10 28  1  0  0  0  0
 11 12  1  0  0  0  0
 11 15  2  0  0  0  0
 12 13  2  0  0  0  0
 14 16  1  0  0  0  0
 14 29  1  0  0  0  0
 14 30  1  0  0  0  0
 15 18  1  0  0  0  0
 15 31  1  0  0  0  0
 16 17  1  0  0  0  0
 16 32  1  0  0  0  0
 16 33  1  0  0  0  0
 17 19  1  0  0  0  0
 17 20  2  0  0  0  0
 18 34  1  0  0  0  0
 18 35  1  0  0  0  0
 19 36  1  0  0  0  0
 19 37  1  0  0  0  0
M  END
> <rseq>
1

> <mseq>
67

> <S>
-5.354361

> <rmsd_refine>
1.820874

> <E_conf>
-85.80094

> <E_score1>
-7.956137

> <E_refine>
-28.74799

> <E_score2>
-5.354361

>  <$File>
outputs/pdb_4j58_cleaned.pdb_2024_06_17__22_47_40_V2_BS398_MIN1_/SDF/sdf_db.sdf

> <Rec_index>
1

>  <PLIF_raw>
[13,954,62,2,1.3]

> <FP:PLIF>
20

>  <PLIF_ligidx>
13

$$$$
67
  MOE2022           3D

 39 39  0  0  0  0  0  0  0  0999 V2000
    9.2430   21.5760   18.6620 C   0  0  0  0  0  0  0  0  0  0  0  0
    7.8280   21.2840   18.1720 C   0  0  0  0  0  0  0  0  0  0  0  0
    7.0260   22.5940   18.2420 C   0  0  0  0  0  0  0  0  0  0  0  0
    7.2140   20.1500   19.0220 C   0  0  0  0  0  0  0  0  0  0  0  0
    5.7100   20.0490   18.9620 C   0  0  0  0  0  0  0  0  0  0  0  0
    7.8990   20.8520   16.8280 O   0  0  0  0  0  0  0  0  0  0  0  0
    5.1370   19.7550   17.7540 N   0  0  0  0  0  0  0  0  0  0  0  0
    5.0300   20.2500   19.9510 O   0  0  0  0  0  0  0  0  0  0  0  0
    3.7240   19.8100   17.4630 C   0  0  0  0  0  0  0  0  0  0  0  0
    3.1240   18.6400   16.8880 C   0  0  0  0  0  0  0  0  0  0  0  0
    2.9890   20.9410   17.6830 C   0  0  0  0  0  0  0  0  0  0  0  0
    1.7330   18.6510   16.7040 N   0  0  0  0  0  0  0  0  0  0  0  0
    3.7520   17.6360   16.5350 O   0  0  0  0  0  0  0  0  0  0  0  0
    1.0390   17.4070   16.3090 C   0  0  0  0  0  0  0  0  0  0  0  0
    0.6360   16.5390   17.5070 C   0  0  0  0  0  0  0  0  0  0  0  0
    1.6140   20.9680   17.4060 N   0  0  0  0  0  0  0  0  0  0  0  0
    0.9620   19.8030   16.9630 C   0  0  0  0  0  0  0  0  0  0  0  0
    3.5060   22.1100   18.1550 O   0  0  0  0  0  0  0  0  0  0  0  0
    0.8370   22.2120   17.5940 C   0  0  0  0  0  0  0  0  0  0  0  0
   -0.2610   19.7880   16.7990 O   0  0  0  0  0  0  0  0  0  0  0  0
    9.8410   20.6680   18.6530 H   0  0  0  0  0  0  0  0  0  0  0  0
    9.7000   22.3400   18.0370 H   0  0  0  0  0  0  0  0  0  0  0  0
    9.2000   21.9380   19.6840 H   0  0  0  0  0  0  0  0  0  0  0  0
    6.0700   22.4790   17.7340 H   0  0  0  0  0  0  0  0  0  0  0  0
    6.8530   22.8730   19.2820 H   0  0  0  0  0  0  0  0  0  0  0  0
    7.5740   23.3960   17.7460 H   0  0  0  0  0  0  0  0  0  0  0  0
    7.6580   19.2080   18.7360 H   0  0  0  0  0  0  0  0  0  0  0  0
    7.4900   20.2920   20.0580 H   0  0  0  0  0  0  0  0  0  0  0  0
    8.5700   20.1660   16.7740 H   0  0  0  0  0  0  0  0  0  0  0  0
    5.7790   19.4710   16.9970 H   0  0  0  0  0  0  0  0  0  0  0  0
    0.1590   17.6370   15.7240 H   0  0  0  0  0  0  0  0  0  0  0  0
    1.6540   16.8250   15.6350 H   0  0  0  0  0  0  0  0  0  0  0  0
   -0.0260   17.0920   18.1730 H   0  0  0  0  0  0  0  0  0  0  0  0
    0.1140   15.6460   17.1650 H   0  0  0  0  0  0  0  0  0  0  0  0
    1.5180   16.2310   18.0700 H   0  0  0  0  0  0  0  0  0  0  0  0
    2.7950   22.7690   18.2650 H   0  0  0  0  0  0  0  0  0  0  0  0
   -0.2210   22.0900   17.4070 H   0  0  0  0  0  0  0  0  0  0  0  0
    0.9260   22.5830   18.6060 H   0  0  0  0  0  0  0  0  0  0  0  0
    1.1810   22.9920   16.9270 H   0  0  0  0  0  0  0  0  0  0  0  0
  1  2  1  0  0  0  0
  1 21  1  0  0  0  0
  1 22  1  0  0  0  0
  1 23  1  0  0  0  0
  2  3  1  0  0  0  0
  2  4  1  0  0  0  0
  2  6  1  0  0  0  0
  3 24  1  0  0  0  0
  3 25  1  0  0  0  0
  3 26  1  0  0  0  0
  4  5  1  0  0  0  0
  4 27  1  0  0  0  0
  4 28  1  0  0  0  0
  5  7  1  0  0  0  0
  5  8  2  0  0  0  0
  6 29  1  0  0  0  0
  7  9  1  0  0  0  0
  7 30  1  0  0  0  0
  9 10  1  0  0  0  0
  9 11  2  0  0  0  0
 10 12  1  0  0  0  0
 10 13  2  0  0  0  0
 11 16  1  0  0  0  0
 11 18  1  0  0  0  0
 12 14  1  0  0  0  0
 12 17  1  0  0  0  0
 14 15  1  0  0  0  0
 14 31  1  0  0  0  0
 14 32  1  0  0  0  0
 15 33  1  0  0  0  0
 15 34  1  0  0  0  0
 15 35  1  0  0  0  0
 16 17  1  0  0  0  0
 16 19  1  0  0  0  0
 17 20  2  0  0  0  0
 18 36  1  0  0  0  0
 19 37  1  0  0  0  0
 19 38  1  0  0  0  0
 19 39  1  0  0  0  0
M  END
> <rseq>
1

> <mseq>
68

> <S>
-5.535748

> <rmsd_refine>
3.143262

> <E_conf>
-152.0394

> <E_score1>
-7.548687

> <E_refine>
-31.28998

> <E_score2>
-5.535748

>  <$File>
outputs/pdb_4j58_cleaned.pdb_2024_06_17__22_47_40_V2_BS398_MIN1_/SDF/sdf_db.sdf

> <Rec_index>
1

>  <PLIF_raw>
[[6,8,8,13,9,11,16,17,12,10],[924,1499,1870,954,1515,1515,1515,1515,1515,1515],[60,101,125,62,102,102,102,102,102,102],[1,4,2,2,10,10,10,10,10,10],[1.1,2.2,0.6,2.7,0.6,0.6,0.6,0.6,0.6,0.6]]

> <FP:PLIF>
37 20 23 11 12 22 29

>  <PLIF_ligidx>
[6,13,13,8,8,[9,11,16,17,12,10],8]

$$$$
68
  MOE2022           3D

 35 36  0  0  1  0  0  0  0  0999 V2000
    7.3660   21.3060   19.3470 C   0  0  0  0  0  0  0  0  0  0  0  0
    6.5000   22.3890   19.3310 C   0  0  0  0  0  0  0  0  0  0  0  0
    6.9630   20.0920   18.8070 C   0  0  0  0  0  0  0  0  0  0  0  0
    5.7040   19.9660   18.2250 C   0  0  0  0  0  0  0  0  0  0  0  0
    5.2280   22.2460   18.7800 C   0  0  0  0  0  0  0  0  0  0  0  0
    4.3920   23.3290   18.8320 O   0  0  0  0  0  0  0  0  0  0  0  0
    4.8160   21.0450   18.1840 C   0  0  0  0  0  0  0  0  0  0  0  0
    3.4810   20.9590   17.4300 C   0  0  2  0  0  0  0  0  0  0  0  0
    3.1260   19.6030   16.9710 N   0  0  0  0  0  0  0  0  0  0  0  0
    3.5940   21.7360   16.1150 C   0  0  0  0  0  0  0  0  0  0  0  0
    4.0860   20.6750   15.1350 C   0  0  1  0  0  0  0  0  0  0  0  0
    3.5180   19.3920   15.7040 C   0  0  0  0  0  0  0  0  0  0  0  0
    3.3740   18.3380   15.0840 O   0  0  0  0  0  0  0  0  0  0  0  0
    2.1900   18.7220   17.6730 C   0  0  0  0  0  0  0  0  0  0  0  0
    3.7100   20.9600   13.7470 N   0  0  0  0  0  0  0  0  0  0  0  0
    4.5170   21.6270   12.8740 C   0  0  0  0  0  0  0  0  0  0  0  0
    5.6520   21.9540   13.1790 O   0  0  0  0  0  0  0  0  0  0  0  0
    2.8730   17.5870   18.4430 C   0  0  0  0  0  0  0  0  0  0  0  0
    2.6060   16.3370   18.0650 N   0  0  0  0  0  0  0  0  0  0  0  0
    3.5930   17.8210   19.4080 O   0  0  0  0  0  0  0  0  0  0  0  0
    8.3350   21.4060   19.7640 H   0  0  0  0  0  0  0  0  0  0  0  0
    6.8080   23.3170   19.7340 H   0  0  0  0  0  0  0  0  0  0  0  0
    7.6240   19.2650   18.8260 H   0  0  0  0  0  0  0  0  0  0  0  0
    5.4350   19.0390   17.7970 H   0  0  0  0  0  0  0  0  0  0  0  0
    3.5280   23.1250   18.4240 H   0  0  0  0  0  0  0  0  0  0  0  0
    2.6870   21.3700   18.0390 H   0  0  0  0  0  0  0  0  0  0  0  0
    2.5980   22.0690   15.8180 H   0  0  0  0  0  0  0  0  0  0  0  0
    4.2740   22.5880   16.1600 H   0  0  0  0  0  0  0  0  0  0  0  0
    5.1620   20.6220   15.2280 H   0  0  0  0  0  0  0  0  0  0  0  0
    1.5910   19.3050   18.3660 H   0  0  0  0  0  0  0  0  0  0  0  0
    1.5010   18.2900   16.9460 H   0  0  0  0  0  0  0  0  0  0  0  0
    2.7490   20.7230   13.4560 H   0  0  0  0  0  0  0  0  0  0  0  0
    4.1060   21.8350   11.9180 H   0  0  0  0  0  0  0  0  0  0  0  0
    3.0280   15.5690   18.5670 H   0  0  0  0  0  0  0  0  0  0  0  0
    2.0020   16.1580   17.2770 H   0  0  0  0  0  0  0  0  0  0  0  0
  1  2  1  0  0  0  0
  1  3  2  0  0  0  0
  1 21  1  0  0  0  0
  2  5  2  0  0  0  0
  2 22  1  0  0  0  0
  3  4  1  0  0  0  0
  3 23  1  0  0  0  0
  4  7  2  0  0  0  0
  4 24  1  0  0  0  0
  5  6  1  0  0  0  0
  5  7  1  0  0  0  0
  6 25  1  0  0  0  0
  7  8  1  0  0  0  0
  8  9  1  0  0  0  0
  8 10  1  0  0  0  0
  8 26  1  0  0  0  0
  9 12  1  0  0  0  0
  9 14  1  0  0  0  0
 10 11  1  0  0  0  0
 10 27  1  0  0  0  0
 10 28  1  0  0  0  0
 11 12  1  0  0  0  0
 11 15  1  0  0  0  0
 11 29  1  0  0  0  0
 12 13  2  0  0  0  0
 14 18  1  0  0  0  0
 14 30  1  0  0  0  0
 14 31  1  0  0  0  0
 15 16  1  0  0  0  0
 15 32  1  0  0  0  0
 16 17  2  0  0  0  0
 16 33  1  0  0  0  0
 18 19  1  0  0  0  0
 18 20  2  0  0  0  0
 19 34  1  0  0  0  0
 19 35  1  0  0  0  0
M  END
> <rseq>
1

> <mseq>
69

> <S>
-4.794822

> <rmsd_refine>
1.333149

> <E_conf>
-48.95991

> <E_score1>
-7.057096

> <E_refine>
-24.49491

> <E_score2>
-4.794822

>  <$File>
outputs/pdb_4j58_cleaned.pdb_2024_06_17__22_47_40_V2_BS398_MIN1_/SDF/sdf_db.sdf

> <Rec_index>
1

>  <PLIF_raw>
[[19,17],[1617,829],[110,54],[1,2],[2.3,1]]

> <FP:PLIF>
6 26 38

>  <PLIF_ligidx>
[17,19,19]

$$$$
69
  MOE2022           3D

 37 38  0  0  1  0  0  0  0  0999 V2000
    6.9000   21.4930   16.5540 C   0  0  0  0  0  0  0  0  0  0  0  0
    6.2740   20.3630   17.0740 C   0  0  0  0  0  0  0  0  0  0  0  0
    4.9970   20.0390   16.6160 C   0  0  0  0  0  0  0  0  0  0  0  0
    4.3280   20.8440   15.7140 C   0  0  0  0  0  0  0  0  0  0  0  0
    4.2540   18.9200   16.9800 N   0  0  0  0  0  0  0  0  0  0  0  0
    6.2460   22.2910   15.6110 C   0  0  0  0  0  0  0  0  0  0  0  0
    4.9500   21.9730   15.1960 C   0  0  0  0  0  0  0  0  0  0  0  0
    2.9260   20.3440   15.5250 C   0  0  2  0  0  0  0  0  0  0  0  0
    2.9290   19.0250   16.3380 C   0  0  2  0  0  0  0  0  0  0  0  0
    2.4860   20.2000   14.0610 C   0  0  0  0  0  0  0  0  0  0  0  0
    3.1330   19.1090   13.3410 O   0  0  0  0  0  0  0  0  0  0  0  0
    2.6350   18.6750   12.1620 C   0  0  0  0  0  0  0  0  0  0  0  0
    1.7850   18.9620   17.3610 C   0  0  0  0  0  0  0  0  0  0  0  0
    1.5360   17.6200   17.8960 N   0  0  0  0  0  0  0  0  0  0  0  0
    2.2670   17.0400   18.8980 C   0  0  0  0  0  0  0  0  0  0  0  0
    3.2090   17.5850   19.4730 O   0  0  0  0  0  0  0  0  0  0  0  0
    1.6810   19.2530   11.6400 O   0  0  0  0  0  0  0  0  0  0  0  0
    1.8690   15.7850   19.2260 N   0  0  0  0  0  0  0  0  0  0  0  0
    3.2980   17.4700   11.5310 C   0  0  0  0  0  0  0  0  0  0  0  0
    4.3430   17.8360   10.6030 O   0  0  0  0  0  0  0  0  0  0  0  0
    7.8770   21.7500   16.8760 H   0  0  0  0  0  0  0  0  0  0  0  0
    6.7600   19.7540   17.7910 H   0  0  0  0  0  0  0  0  0  0  0  0
    4.2400   18.7200   17.9950 H   0  0  0  0  0  0  0  0  0  0  0  0
    6.7290   23.1500   15.2200 H   0  0  0  0  0  0  0  0  0  0  0  0
    4.4440   22.5970   14.5060 H   0  0  0  0  0  0  0  0  0  0  0  0
    2.2820   21.0790   16.0100 H   0  0  0  0  0  0  0  0  0  0  0  0
    2.8340   18.1780   15.6580 H   0  0  0  0  0  0  0  0  0  0  0  0
    1.4090   20.0240   14.0570 H   0  0  0  0  0  0  0  0  0  0  0  0
    2.6800   21.1350   13.5330 H   0  0  0  0  0  0  0  0  0  0  0  0
    2.0010   19.6550   18.1720 H   0  0  0  0  0  0  0  0  0  0  0  0
    0.8700   19.3010   16.8750 H   0  0  0  0  0  0  0  0  0  0  0  0
    0.8070   17.0520   17.4400 H   0  0  0  0  0  0  0  0  0  0  0  0
    1.2020   15.2950   18.6130 H   0  0  0  0  0  0  0  0  0  0  0  0
    2.4960   15.2180   19.8150 H   0  0  0  0  0  0  0  0  0  0  0  0
    3.7300   16.8380   12.2940 H   0  0  0  0  0  0  0  0  0  0  0  0
    2.5680   16.8830   10.9900 H   0  0  0  0  0  0  0  0  0  0  0  0
    3.9660   18.3270    9.8520 H   0  0  0  0  0  0  0  0  0  0  0  0
  1  2  1  0  0  0  0
  1  6  2  0  0  0  0
  1 21  1  0  0  0  0
  2  3  2  0  0  0  0
  2 22  1  0  0  0  0
  3  4  1  0  0  0  0
  3  5  1  0  0  0  0
  4  7  2  0  0  0  0
  4  8  1  0  0  0  0
  5  9  1  0  0  0  0
  5 23  1  0  0  0  0
  6  7  1  0  0  0  0
  6 24  1  0  0  0  0
  7 25  1  0  0  0  0
  8  9  1  0  0  0  0
  8 10  1  0  0  0  0
  8 26  1  0  0  0  0
  9 13  1  0  0  0  0
  9 27  1  0  0  0  0
 10 11  1  0  0  0  0
 10 28  1  0  0  0  0
 10 29  1  0  0  0  0
 11 12  1  0  0  0  0
 12 17  2  0  0  0  0
 12 19  1  0  0  0  0
 13 14  1  0  0  0  0
 13 30  1  0  0  0  0
 13 31  1  0  0  0  0
 14 15  1  0  0  0  0
 14 32  1  0  0  0  0
 15 16  2  0  0  0  0
 15 18  1  0  0  0  0
 18 33  1  0  0  0  0
 18 34  1  0  0  0  0
 19 20  1  0  0  0  0
 19 35  1  0  0  0  0
 19 36  1  0  0  0  0
 20 37  1  0  0  0  0
M  END
> <rseq>
1

> <mseq>
70

> <S>
-4.37302

> <rmsd_refine>
2.721222

> <E_conf>
-74.87201

> <E_score1>
-7.287908

> <E_refine>
-20.03658

> <E_score2>
-4.37302

>  <$File>
outputs/pdb_4j58_cleaned.pdb_2024_06_17__22_47_40_V2_BS398_MIN1_/SDF/sdf_db.sdf

> <Rec_index>
1

>  <PLIF_raw>
[[18,18],[1071,1617],[71,110],[3,1],[0.5,0.7]]

> <FP:PLIF>
7 26

>  <PLIF_ligidx>
[18,18]

$$$$
70
  MOE2022           3D

 40 41  0  0  1  0  0  0  0  0999 V2000
    3.3210   17.2240   19.9340 O   0  0  0  0  0  0  0  0  0  0  0  0
    2.2610   16.9780   19.3170 C   0  0  0  0  0  0  0  0  0  0  0  0
    1.1230   16.9910   19.8390 O   0  5  0  0  0  0  0  0  0  0  0  0
    2.3900   16.5760   17.8550 C   0  0  1  0  0  0  0  0  0  0  0  0
    1.0880   16.4530   17.0670 C   0  0  0  0  0  0  0  0  0  0  0  0
    3.1840   17.4520   16.9960 N   0  0  0  0  0  0  0  0  0  0  0  0
    1.4770   16.7780   15.7040 N   0  0  0  0  0  0  0  0  0  0  0  0
    2.6210   17.5460   15.7530 C   0  0  0  0  0  0  0  0  0  0  0  0
    0.4620   16.7860   14.6480 C   0  0  0  0  0  0  0  0  0  0  0  0
    3.0890   18.2130   14.8290 O   0  0  0  0  0  0  0  0  0  0  0  0
    0.9590   16.7480   13.1880 C   0  0  0  0  0  0  0  0  0  0  0  0
    2.1730   15.8480   12.8780 C   0  0  1  0  0  0  0  0  0  0  0  0
    2.1080   14.5570   13.5900 N   0  3  0  0  0  0  0  0  0  0  0  0
    2.2690   15.6410   11.3550 C   0  0  0  0  0  0  0  0  0  0  0  0
    3.6110   15.0890   10.8990 C   0  0  0  0  0  0  0  0  0  0  0  0
    4.6420   15.9160   10.4340 C   0  0  0  0  0  0  0  0  0  0  0  0
    4.4770   17.2720   10.3550 O   0  0  0  0  0  0  0  0  0  0  0  0
    5.8720   15.3940   10.0400 C   0  0  0  0  0  0  0  0  0  0  0  0
    3.8410   13.7140   10.9450 C   0  0  0  0  0  0  0  0  0  0  0  0
    5.0710   13.1850   10.5590 C   0  0  0  0  0  0  0  0  0  0  0  0
    6.0860   14.0240   10.1110 C   0  0  0  0  0  0  0  0  0  0  0  0
    2.8910   15.6200   17.8390 H   0  0  0  0  0  0  0  0  0  0  0  0
    0.6260   15.4830   17.1600 H   0  0  0  0  0  0  0  0  0  0  0  0
    0.3680   17.1830   17.4150 H   0  0  0  0  0  0  0  0  0  0  0  0
    3.7090   18.2490   17.3880 H   0  0  0  0  0  0  0  0  0  0  0  0
   -0.1850   15.9320   14.8030 H   0  0  0  0  0  0  0  0  0  0  0  0
   -0.1820   17.6450   14.7810 H   0  0  0  0  0  0  0  0  0  0  0  0
    0.1140   16.4370   12.5720 H   0  0  0  0  0  0  0  0  0  0  0  0
    1.2170   17.7660   12.8940 H   0  0  0  0  0  0  0  0  0  0  0  0
    3.0700   16.3730   13.2100 H   0  0  0  0  0  0  0  0  0  0  0  0
    1.2850   14.0480   13.3040 H   0  0  0  0  0  0  0  0  0  0  0  0
    2.9370   14.0150   13.3810 H   0  0  0  0  0  0  0  0  0  0  0  0
    2.0650   14.7410   14.5840 H   0  0  0  0  0  0  0  0  0  0  0  0
    1.4800   14.9580   11.0360 H   0  0  0  0  0  0  0  0  0  0  0  0
    2.0810   16.5890   10.8510 H   0  0  0  0  0  0  0  0  0  0  0  0
    3.5570   17.5310   10.5570 H   0  0  0  0  0  0  0  0  0  0  0  0
    6.6370   16.0370    9.6890 H   0  0  0  0  0  0  0  0  0  0  0  0
    3.0800   13.0570   11.2780 H   0  0  0  0  0  0  0  0  0  0  0  0
    5.2370   12.1390   10.6090 H   0  0  0  0  0  0  0  0  0  0  0  0
    7.0210   13.6160    9.8260 H   0  0  0  0  0  0  0  0  0  0  0  0
  1  2  2  0  0  0  0
  2  3  1  0  0  0  0
  2  4  1  0  0  0  0
  4  5  1  0  0  0  0
  4  6  1  0  0  0  0
  4 22  1  0  0  0  0
  5  7  1  0  0  0  0
  5 23  1  0  0  0  0
  5 24  1  0  0  0  0
  6  8  1  0  0  0  0
  6 25  1  0  0  0  0
  7  8  1  0  0  0  0
  7  9  1  0  0  0  0
  8 10  2  0  0  0  0
  9 11  1  0  0  0  0
  9 26  1  0  0  0  0
  9 27  1  0  0  0  0
 11 12  1  0  0  0  0
 11 28  1  0  0  0  0
 11 29  1  0  0  0  0
 12 13  1  0  0  0  0
 12 14  1  0  0  0  0
 12 30  1  0  0  0  0
 13 31  1  0  0  0  0
 13 32  1  0  0  0  0
 13 33  1  0  0  0  0
 14 15  1  0  0  0  0
 14 34  1  0  0  0  0
 14 35  1  0  0  0  0
 15 16  1  0  0  0  0
 15 19  2  0  0  0  0
 16 17  1  0  0  0  0
 16 18  2  0  0  0  0
 17 36  1  0  0  0  0
 18 21  1  0  0  0  0
 18 37  1  0  0  0  0
 19 20  1  0  0  0  0
 19 38  1  0  0  0  0
 20 21  2  0  0  0  0
 20 39  1  0  0  0  0
 21 40  1  0  0  0  0
M  CHG  1   3  -1
M  CHG  1  13   1
M  END
> <rseq>
1

> <mseq>
71

> <S>
-5.15144

> <rmsd_refine>
1.218234

> <E_conf>
-170.1445

> <E_score1>
-8.266138

> <E_refine>
-27.27689

> <E_score2>
-5.15144

>  <$File>
outputs/pdb_4j58_cleaned.pdb_2024_06_17__22_47_40_V2_BS398_MIN1_/SDF/sdf_db.sdf

> <Rec_index>
1

>  <PLIF_raw>
[13,1056,70,3,1.4]

> <FP:PLIF>
3

>  <PLIF_ligidx>
13

$$$$
71
  MOE2022           3D

 36 38  0  0  1  0  0  0  0  0999 V2000
    8.3050   21.2620   18.3900 C   0  0  0  0  0  0  0  0  0  0  0  0
    7.7700   22.1340   17.4520 C   0  0  0  0  0  0  0  0  0  0  0  0
    7.5860   20.1360   18.7720 C   0  0  0  0  0  0  0  0  0  0  0  0
    6.3360   19.8770   18.2130 C   0  0  0  0  0  0  0  0  0  0  0  0
    6.5190   21.8670   16.8990 C   0  0  0  0  0  0  0  0  0  0  0  0
    6.0410   22.7780   15.9990 O   0  0  0  0  0  0  0  0  0  0  0  0
    5.7750   20.7260   17.2530 C   0  0  0  0  0  0  0  0  0  0  0  0
    4.3780   20.4530   16.6570 C   0  0  2  0  0  0  0  0  0  0  0  0
    3.8390   19.0790   16.8030 N   0  0  0  0  0  0  0  0  0  0  0  0
    4.3170   20.6950   15.2160 N   0  0  0  0  0  0  0  0  0  0  0  0
    3.0110   18.8300   15.6010 C   0  0  2  0  0  0  0  0  0  0  0  0
    3.6070   19.8420   14.6470 C   0  0  0  0  0  0  0  0  0  0  0  0
    3.3470   19.9160   13.1550 C   0  0  0  0  0  0  0  0  0  0  0  0
    1.5010   19.1460   15.7640 C   0  0  0  0  0  0  0  0  0  0  0  0
    3.1540   18.8280   18.0770 C   0  0  0  0  0  0  0  0  0  0  0  0
    3.2020   17.3810   15.1850 C   0  0  0  0  0  0  0  0  0  0  0  0
    2.7860   17.3840   18.3890 C   0  0  0  0  0  0  0  0  0  0  0  0
    3.4200   17.0340   14.0460 O   0  0  0  0  0  0  0  0  0  0  0  0
    2.5080   17.0720   19.5350 O   0  0  0  0  0  0  0  0  0  0  0  0
    2.7360   16.3780   17.4610 N   0  0  0  0  0  0  0  0  0  0  0  0
    3.0840   16.3990   16.0990 O   0  0  0  0  0  0  0  0  0  0  0  0
    9.2570   21.4540   18.8160 H   0  0  0  0  0  0  0  0  0  0  0  0
    8.3100   22.9970   17.1600 H   0  0  0  0  0  0  0  0  0  0  0  0
    7.9910   19.4720   19.4900 H   0  0  0  0  0  0  0  0  0  0  0  0
    5.8210   19.0140   18.5330 H   0  0  0  0  0  0  0  0  0  0  0  0
    5.2130   22.4460   15.5950 H   0  0  0  0  0  0  0  0  0  0  0  0
    3.6770   21.1380   17.1170 H   0  0  0  0  0  0  0  0  0  0  0  0
    3.8120   19.1000   12.6220 H   0  0  0  0  0  0  0  0  0  0  0  0
    2.2890   19.8820   12.9370 H   0  0  0  0  0  0  0  0  0  0  0  0
    3.7320   20.8320   12.7280 H   0  0  0  0  0  0  0  0  0  0  0  0
    1.0100   18.4610   16.4550 H   0  0  0  0  0  0  0  0  0  0  0  0
    1.3490   20.1660   16.1180 H   0  0  0  0  0  0  0  0  0  0  0  0
    0.9900   19.0460   14.8060 H   0  0  0  0  0  0  0  0  0  0  0  0
    3.7830   19.1820   18.8790 H   0  0  0  0  0  0  0  0  0  0  0  0
    2.2730   19.4490   18.1510 H   0  0  0  0  0  0  0  0  0  0  0  0
    2.4630   15.4250   17.7610 H   0  0  0  0  0  0  0  0  0  0  0  0
  1  2  1  0  0  0  0
  1  3  2  0  0  0  0
  1 22  1  0  0  0  0
  2  5  2  0  0  0  0
  2 23  1  0  0  0  0
  3  4  1  0  0  0  0
  3 24  1  0  0  0  0
  4  7  2  0  0  0  0
  4 25  1  0  0  0  0
  5  6  1  0  0  0  0
  5  7  1  0  0  0  0
  6 26  1  0  0  0  0
  7  8  1  0  0  0  0
  8  9  1  0  0  0  0
  8 10  1  0  0  0  0
  8 27  1  0  0  0  0
  9 11  1  0  0  0  0
  9 15  1  0  0  0  0
 10 12  2  0  0  0  0
 11 12  1  0  0  0  0
 11 14  1  0  0  0  0
 11 16  1  0  0  0  0
 12 13  1  0  0  0  0
 13 28  1  0  0  0  0
 13 29  1  0  0  0  0
 13 30  1  0  0  0  0
 14 31  1  0  0  0  0
 14 32  1  0  0  0  0
 14 33  1  0  0  0  0
 15 17  1  0  0  0  0
 15 34  1  0  0  0  0
 15 35  1  0  0  0  0
 16 18  2  0  0  0  0
 16 21  1  0  0  0  0
 17 19  2  0  0  0  0
 17 20  1  0  0  0  0
 20 21  1  0  0  0  0
 20 36  1  0  0  0  0
M  END
> <rseq>
1

> <mseq>
72

> <S>
-5.025338

> <rmsd_refine>
0.7670673

> <E_conf>
92.26627

> <E_score1>
-7.738341

> <E_refine>
-26.6344

> <E_score2>
-5.025338

>  <$File>
outputs/pdb_4j58_cleaned.pdb_2024_06_17__22_47_40_V2_BS398_MIN1_/SDF/sdf_db.sdf

> <Rec_index>
1

>  <PLIF_raw>
[20,1071,71,3,3.9]

> <FP:PLIF>
7 14

>  <PLIF_ligidx>
[20,20]

$$$$
96
  MOE2022           3D

 38 39  0  0  1  0  0  0  0  0999 V2000
    6.0030   14.7090    9.9280 C   0  0  0  0  0  0  0  0  0  0  0  0
    5.7820   15.6920    8.9700 C   0  0  0  0  0  0  0  0  0  0  0  0
    4.5570   16.3460    8.9170 C   0  0  0  0  0  0  0  0  0  0  0  0
    3.5540   16.0190    9.8230 C   0  0  0  0  0  0  0  0  0  0  0  0
    4.9980   14.3810   10.8340 C   0  0  0  0  0  0  0  0  0  0  0  0
    3.7680   15.0380   10.7910 C   0  0  0  0  0  0  0  0  0  0  0  0
    2.6730   14.7240   11.7970 C   0  0  0  0  0  0  0  0  0  0  0  0
    2.4680   15.8570   12.7790 C   0  0  0  0  0  0  0  0  0  0  0  0
    2.0610   16.9470   12.4250 O   0  0  0  0  0  0  0  0  0  0  0  0
    2.7750   15.6210   14.1040 N   0  0  0  0  0  0  0  0  0  0  0  0
    3.0380   16.6100   15.0710 C   0  0  0  0  0  0  0  0  0  0  0  0
    3.4440   17.8740   14.8030 C   0  0  0  0  0  0  0  0  0  0  0  0
    3.8070   18.7790   15.8660 C   0  0  0  0  0  0  0  0  0  0  0  0
    3.6370   18.4710   17.1670 C   0  0  0  0  0  0  0  0  0  0  0  0
    2.9340   16.1030   16.5190 N   0  3  0  0  0  0  0  0  0  0  0  0
    2.9230   17.1850   17.5890 C   0  0  2  0  0  0  0  0  0  0  0  0
    4.1020   19.4100   18.2670 C   0  0  0  0  0  0  0  0  0  0  0  0
    5.5630   19.8220   18.2340 C   0  0  0  0  0  0  0  0  0  0  0  0
    1.5410   17.4490   18.1660 C   0  0  0  0  0  0  0  0  0  0  0  0
    0.6490   17.8590   17.3920 O   0  0  0  0  0  0  0  0  0  0  0  0
    6.2880   19.4310   19.1760 O   0  0  0  0  0  0  0  0  0  0  0  0
    1.3490   17.1020   19.3530 O   0  5  0  0  0  0  0  0  0  0  0  0
    5.9600   20.5380   17.2890 O   0  5  0  0  0  0  0  0  0  0  0  0
    6.9350   14.2070    9.9680 H   0  0  0  0  0  0  0  0  0  0  0  0
    6.5400   15.9440    8.2760 H   0  0  0  0  0  0  0  0  0  0  0  0
    4.3880   17.0950    8.1860 H   0  0  0  0  0  0  0  0  0  0  0  0
    2.6240   16.5250    9.7750 H   0  0  0  0  0  0  0  0  0  0  0  0
    5.1780   13.6310   11.5590 H   0  0  0  0  0  0  0  0  0  0  0  0
    1.7460   14.5400   11.2710 H   0  0  0  0  0  0  0  0  0  0  0  0
    2.8920   13.8020   12.3190 H   0  0  0  0  0  0  0  0  0  0  0  0
    2.8650   14.6340   14.3890 H   0  0  0  0  0  0  0  0  0  0  0  0
    3.5630   18.2250   13.8120 H   0  0  0  0  0  0  0  0  0  0  0  0
    4.2410   19.7050   15.5870 H   0  0  0  0  0  0  0  0  0  0  0  0
    2.0480   15.5180   16.6310 H   0  0  0  0  0  0  0  0  0  0  0  0
    3.7080   15.4060   16.7210 H   0  0  0  0  0  0  0  0  0  0  0  0
    3.4840   16.8130   18.4350 H   0  0  0  0  0  0  0  0  0  0  0  0
    3.4880   20.2990   18.2370 H   0  0  0  0  0  0  0  0  0  0  0  0
    3.9180   18.9310   19.2170 H   0  0  0  0  0  0  0  0  0  0  0  0
  1  2  1  0  0  0  0
  1  5  2  0  0  0  0
  1 24  1  0  0  0  0
  2  3  2  0  0  0  0
  2 25  1  0  0  0  0
  3  4  1  0  0  0  0
  3 26  1  0  0  0  0
  4  6  2  0  0  0  0
  4 27  1  0  0  0  0
  5  6  1  0  0  0  0
  5 28  1  0  0  0  0
  6  7  1  0  0  0  0
  7  8  1  0  0  0  0
  7 29  1  0  0  0  0
  7 30  1  0  0  0  0
  8  9  2  0  0  0  0
  8 10  1  0  0  0  0
 10 11  1  0  0  0  0
 10 31  1  0  0  0  0
 11 12  2  0  0  0  0
 11 15  1  0  0  0  0
 12 13  1  0  0  0  0
 12 32  1  0  0  0  0
 13 14  2  0  0  0  0
 13 33  1  0  0  0  0
 14 16  1  0  0  0  0
 14 17  1  0  0  0  0
 15 16  1  0  0  0  0
 15 34  1  0  0  0  0
 15 35  1  0  0  0  0
 16 19  1  0  0  0  0
 16 36  1  0  0  0  0
 17 18  1  0  0  0  0
 17 37  1  0  0  0  0
 17 38  1  0  0  0  0
 18 21  2  0  0  0  0
 18 23  1  0  0  0  0
 19 20  2  0  0  0  0
 19 22  1  0  0  0  0
M  CHG  1  15   1
M  CHG  1  22  -1
M  CHG  1  23  -1
M  END
> <rseq>
1

> <mseq>
97

> <S>
-5.439827

> <rmsd_refine>
0.9768984

> <E_conf>
-174.9915

> <E_score1>
-10.38872

> <E_refine>
-25.85593

> <E_score2>
-5.439827

>  <$File>
outputs/pdb_4j58_cleaned.pdb_2024_06_17__22_47_40_V2_BS398_MIN1_/SDF/sdf_db.sdf

> <Rec_index>
1

>  <PLIF_raw>
[[15,23,1,5,6,4,3,2],[1071,826,823,823,823,823,823,823],[71,54,54,54,54,54,54,54],[3,7,10,10,10,10,10,10],[2.1,1.605129223,1.5,1.5,1.5,1.5,1.5,1.5]]

> <FP:PLIF>
1 2 5 7 14

>  <PLIF_ligidx>
[23,[1,5,6,4,3,2],[1,5,6,4,3,2],15,15]

$$$$
97
  MOE2022           3D

 41 43  0  0  1  0  0  0  0  0999 V2000
    7.2010   21.1470   19.3430 C   0  0  0  0  0  0  0  0  0  0  0  0
    6.4790   19.9610   19.2720 C   0  0  0  0  0  0  0  0  0  0  0  0
    5.1510   19.9870   18.8460 C   0  0  0  0  0  0  0  0  0  0  0  0
    4.4750   18.7810   18.7890 O   0  0  0  0  0  0  0  0  0  0  0  0
    3.2320   18.4870   18.0670 C   0  0  1  0  0  0  0  0  0  0  0  0
    4.5410   21.1940   18.4940 C   0  0  0  0  0  0  0  0  0  0  0  0
    6.6000   22.3530   18.9920 C   0  0  0  0  0  0  0  0  0  0  0  0
    5.2720   22.3750   18.5700 C   0  0  0  0  0  0  0  0  0  0  0  0
    3.4500   18.3640   16.5580 C   0  0  0  0  0  0  0  0  0  0  0  0
    4.3010   19.0580   16.0040 O   0  0  0  0  0  0  0  0  0  0  0  0
    2.5610   17.2240   18.6400 C   0  0  2  0  0  0  0  0  0  0  0  0
    2.6820   17.5040   15.8420 N   0  0  0  0  0  0  0  0  0  0  0  0
    1.2460   16.9410   17.8870 C   0  0  2  0  0  0  0  0  0  0  0  0
    1.6890   16.5630   16.4460 C   0  0  1  0  0  0  0  0  0  0  0  0
    2.3920   17.3100   20.0400 O   0  0  0  0  0  0  0  0  0  0  0  0
    2.9010   17.2950   14.4050 C   0  0  0  0  0  0  0  0  0  0  0  0
    0.3680   18.1360   17.8210 N   0  0  0  0  0  0  0  0  0  0  0  0
    0.4990   15.8050   18.6290 C   0  0  0  0  0  0  0  0  0  0  0  0
   -0.6260   15.3010   17.9380 O   0  0  0  0  0  0  0  0  0  0  0  0
    0.5400   16.3250   15.5690 O   0  0  0  0  0  0  0  0  0  0  0  0
    0.4680   16.6590   14.2720 C   0  0  0  0  0  0  0  0  0  0  0  0
    1.5980   17.4490   13.6260 C   0  0  0  0  0  0  0  0  0  0  0  0
   -0.5140   16.3210   13.6170 O   0  0  0  0  0  0  0  0  0  0  0  0
    8.2130   21.1340   19.6580 H   0  0  0  0  0  0  0  0  0  0  0  0
    6.9400   19.0440   19.5290 H   0  0  0  0  0  0  0  0  0  0  0  0
    2.5630   19.3170   18.2360 H   0  0  0  0  0  0  0  0  0  0  0  0
    3.5340   21.2220   18.1710 H   0  0  0  0  0  0  0  0  0  0  0  0
    7.1550   23.2530   19.0430 H   0  0  0  0  0  0  0  0  0  0  0  0
    4.8190   23.2950   18.3020 H   0  0  0  0  0  0  0  0  0  0  0  0
    3.2350   16.3860   18.4640 H   0  0  0  0  0  0  0  0  0  0  0  0
    2.2000   15.6150   16.5190 H   0  0  0  0  0  0  0  0  0  0  0  0
    3.2100   17.6380   20.4230 H   0  0  0  0  0  0  0  0  0  0  0  0
    3.6400   17.9700   13.9960 H   0  0  0  0  0  0  0  0  0  0  0  0
    3.2950   16.3000   14.2490 H   0  0  0  0  0  0  0  0  0  0  0  0
    0.8320   18.8860   17.3270 H   0  0  0  0  0  0  0  0  0  0  0  0
    0.1390   18.4370   18.7580 H   0  0  0  0  0  0  0  0  0  0  0  0
    1.1850   14.9910   18.8500 H   0  0  0  0  0  0  0  0  0  0  0  0
    0.1440   16.1920   19.5850 H   0  0  0  0  0  0  0  0  0  0  0  0
   -1.1420   16.0460   17.6150 H   0  0  0  0  0  0  0  0  0  0  0  0
    1.3160   18.5020   13.6190 H   0  0  0  0  0  0  0  0  0  0  0  0
    1.7420   17.1120   12.5990 H   0  0  0  0  0  0  0  0  0  0  0  0
  1  2  1  0  0  0  0
  1  7  2  0  0  0  0
  1 24  1  0  0  0  0
  2  3  2  0  0  0  0
  2 25  1  0  0  0  0
  3  4  1  0  0  0  0
  3  6  1  0  0  0  0
  4  5  1  0  0  0  0
  5  9  1  0  0  0  0
  5 11  1  0  0  0  0
  5 26  1  0  0  0  0
  6  8  2  0  0  0  0
  6 27  1  0  0  0  0
  7  8  1  0  0  0  0
  7 28  1  0  0  0  0
  8 29  1  0  0  0  0
  9 10  2  0  0  0  0
  9 12  1  0  0  0  0
 11 13  1  0  0  0  0
 11 15  1  0  0  0  0
 11 30  1  0  0  0  0
 12 14  1  0  0  0  0
 12 16  1  0  0  0  0
 13 14  1  0  0  0  0
 13 17  1  0  0  0  0
 13 18  1  0  0  0  0
 14 20  1  0  0  0  0
 14 31  1  0  0  0  0
 15 32  1  0  0  0  0
 16 22  1  0  0  0  0
 16 33  1  0  0  0  0
 16 34  1  0  0  0  0
 17 35  1  0  0  0  0
 17 36  1  0  0  0  0
 18 19  1  0  0  0  0
 18 37  1  0  0  0  0
 18 38  1  0  0  0  0
 19 39  1  0  0  0  0
 20 21  1  0  0  0  0
 21 22  1  0  0  0  0
 21 23  2  0  0  0  0
 22 40  1  0  0  0  0
 22 41  1  0  0  0  0
M  END
> <rseq>
1

> <mseq>
98

> <S>
-5.431193

> <rmsd_refine>
1.47498

> <E_conf>
37.22307

> <E_score1>
-8.855569

> <E_refine>
-23.89741

> <E_score2>
-5.431193

>  <$File>
outputs/pdb_4j58_cleaned.pdb_2024_06_17__22_47_40_V2_BS398_MIN1_/SDF/sdf_db.sdf

> <Rec_index>
1

>  <PLIF_raw>
[14,1071,71,3,0.5]

> <FP:PLIF>
7

>  <PLIF_ligidx>
14

$$$$
98
  MOE2022           3D

 42 43  0  0  1  0  0  0  0  0999 V2000
    0.6720   15.9720   20.6960 C   0  0  0  0  0  0  0  0  0  0  0  0
   -0.5320   15.4740   20.2080 C   0  0  0  0  0  0  0  0  0  0  0  0
   -0.7610   15.4220   18.8330 C   0  0  0  0  0  0  0  0  0  0  0  0
    0.2010   15.8890   17.9430 C   0  0  0  0  0  0  0  0  0  0  0  0
    1.6350   16.4250   19.7980 C   0  0  0  0  0  0  0  0  0  0  0  0
    2.8200   16.8750   20.2930 O   0  0  0  0  0  0  0  0  0  0  0  0
    1.4090   16.4190   18.4130 C   0  0  0  0  0  0  0  0  0  0  0  0
    2.3960   16.9690   17.4950 C   0  0  0  0  0  0  0  0  0  0  0  0
    2.4700   18.3510   17.3220 N   0  0  0  0  0  0  0  0  0  0  0  0
    1.4020   19.2300   17.3420 C   0  0  0  0  0  0  0  0  0  0  0  0
    3.7200   19.0810   17.0830 C   0  0  0  0  0  0  0  0  0  0  0  0
    0.2360   18.8800   17.4840 O   0  0  0  0  0  0  0  0  0  0  0  0
    1.8790   20.5730   17.1160 C   0  0  0  0  0  0  0  0  0  0  0  0
    3.2070   16.2840   16.8830 O   0  0  0  0  0  0  0  0  0  0  0  0
    1.1810   21.5640   17.1090 O   0  0  0  0  0  0  0  0  0  0  0  0
    3.3700   20.5760   16.8580 C   0  0  2  0  0  0  0  0  0  0  0  0
    3.6420   20.9840   15.3940 C   0  0  0  0  0  0  0  0  0  0  0  0
    4.0660   21.5270   17.8680 C   0  0  0  0  0  0  0  0  0  0  0  0
    5.5670   21.7820   17.6650 C   0  0  2  0  0  0  0  0  0  0  0  0
    6.3340   20.5640   17.7910 O   0  0  0  0  0  0  0  0  0  0  0  0
    6.0310   22.7390   18.6340 O   0  0  0  0  0  0  0  0  0  0  0  0
    7.7600   20.6500   17.5550 C   0  0  0  0  0  0  0  0  0  0  0  0
    8.5370   20.5990   18.8660 C   0  0  0  0  0  0  0  0  0  0  0  0
    0.8570   16.0100   21.7380 H   0  0  0  0  0  0  0  0  0  0  0  0
   -1.2800   15.1350   20.8770 H   0  0  0  0  0  0  0  0  0  0  0  0
   -1.6750   15.0330   18.4650 H   0  0  0  0  0  0  0  0  0  0  0  0
    0.0130   15.8530   16.9000 H   0  0  0  0  0  0  0  0  0  0  0  0
    3.6460   17.1820   20.7140 H   0  0  0  0  0  0  0  0  0  0  0  0
    4.3690   18.9600   17.9410 H   0  0  0  0  0  0  0  0  0  0  0  0
    4.2550   18.6690   16.2370 H   0  0  0  0  0  0  0  0  0  0  0  0
    3.0680   20.3590   14.7080 H   0  0  0  0  0  0  0  0  0  0  0  0
    3.3550   22.0230   15.2250 H   0  0  0  0  0  0  0  0  0  0  0  0
    4.6970   20.8720   15.1440 H   0  0  0  0  0  0  0  0  0  0  0  0
    3.5700   22.4980   17.8170 H   0  0  0  0  0  0  0  0  0  0  0  0
    3.9230   21.1410   18.8770 H   0  0  0  0  0  0  0  0  0  0  0  0
    5.7500   22.1960   16.6820 H   0  0  0  0  0  0  0  0  0  0  0  0
    5.5780   23.5860   18.5010 H   0  0  0  0  0  0  0  0  0  0  0  0
    8.0560   19.8050   16.9340 H   0  0  0  0  0  0  0  0  0  0  0  0
    7.9910   21.5770   17.0260 H   0  0  0  0  0  0  0  0  0  0  0  0
    9.6030   20.6990   18.6690 H   0  0  0  0  0  0  0  0  0  0  0  0
    8.2230   21.4130   19.5190 H   0  0  0  0  0  0  0  0  0  0  0  0
    8.3460   19.6460   19.3590 H   0  0  0  0  0  0  0  0  0  0  0  0
  1  2  1  0  0  0  0
  1  5  2  0  0  0  0
  1 24  1  0  0  0  0
  2  3  2  0  0  0  0
  2 25  1  0  0  0  0
  3  4  1  0  0  0  0
  3 26  1  0  0  0  0
  4  7  2  0  0  0  0
  4 27  1  0  0  0  0
  5  6  1  0  0  0  0
  5  7  1  0  0  0  0
  6 28  1  0  0  0  0
  7  8  1  0  0  0  0
  8  9  1  0  0  0  0
  8 14  2  0  0  0  0
  9 10  1  0  0  0  0
  9 11  1  0  0  0  0
 10 12  2  0  0  0  0
 10 13  1  0  0  0  0
 11 16  1  0  0  0  0
 11 29  1  0  0  0  0
 11 30  1  0  0  0  0
 13 15  2  0  0  0  0
 13 16  1  0  0  0  0
 16 17  1  0  0  0  0
 16 18  1  0  0  0  0
 17 31  1  0  0  0  0
 17 32  1  0  0  0  0
 17 33  1  0  0  0  0
 18 19  1  0  0  0  0
 18 34  1  0  0  0  0
 18 35  1  0  0  0  0
 19 20  1  0  0  0  0
 19 21  1  0  0  0  0
 19 36  1  0  0  0  0
 20 22  1  0  0  0  0
 21 37  1  0  0  0  0
 22 23  1  0  0  0  0
 22 38  1  0  0  0  0
 22 39  1  0  0  0  0
 23 40  1  0  0  0  0
 23 41  1  0  0  0  0
 23 42  1  0  0  0  0
M  END
> <rseq>
1

> <mseq>
99

> <S>
-5.889454

> <rmsd_refine>
1.177392

> <E_conf>
13.86051

> <E_score1>
-9.01767

> <E_refine>
-30.70297

> <E_score2>
-5.889454

>  <$File>
outputs/pdb_4j58_cleaned.pdb_2024_06_17__22_47_40_V2_BS398_MIN1_/SDF/sdf_db.sdf

> <Rec_index>
1

>  <PLIF_raw>
[[14,1,5,7,4,3,2],[954,1519,1519,1519,1519,1519,1519],[62,102,102,102,102,102,102],[2,10,10,10,10,10,10],[1.2,0.8,0.8,0.8,0.8,0.8,0.8]]

> <FP:PLIF>
20 22

>  <PLIF_ligidx>
[14,[1,5,7,4,3,2]]

$$$$
99
  MOE2022           3D

 42 43  0  0  1  0  0  0  0  0999 V2000
    2.9260   17.0180   19.4630 O   0  0  0  0  0  0  0  0  0  0  0  0
    1.8620   17.0870   18.8540 C   0  0  0  0  0  0  0  0  0  0  0  0
    1.7810   17.8430   17.7100 N   0  0  0  0  0  0  0  0  0  0  0  0
    0.6470   16.4060   19.2870 C   0  0  0  0  0  0  0  0  0  0  0  0
   -0.1490   15.7110   18.3660 C   0  0  0  0  0  0  0  0  0  0  0  0
   -1.3360   15.1120   18.7710 C   0  0  0  0  0  0  0  0  0  0  0  0
    0.2430   16.4590   20.6260 C   0  0  0  0  0  0  0  0  0  0  0  0
    2.9320   18.3500   16.9620 C   0  0  1  0  0  0  0  0  0  0  0  0
   -0.9660   15.8960   21.0180 C   0  0  0  0  0  0  0  0  0  0  0  0
   -1.7510   15.2130   20.0950 C   0  0  0  0  0  0  0  0  0  0  0  0
    2.9200   17.7570   15.5520 C   0  0  0  0  0  0  0  0  0  0  0  0
    3.2110   16.3970   15.3720 C   0  0  0  0  0  0  0  0  0  0  0  0
    3.5300   15.6140   16.4400 O   0  0  0  0  0  0  0  0  0  0  0  0
    3.1890   15.7900   14.1180 C   0  0  0  0  0  0  0  0  0  0  0  0
    2.8900   16.5640   13.0010 C   0  0  0  0  0  0  0  0  0  0  0  0
    3.0250   19.8860   17.0410 C   0  0  0  0  0  0  0  0  0  0  0  0
    2.8760   16.0170   11.7270 O   0  0  0  0  0  0  0  0  0  0  0  0
    2.5960   17.9230   13.1580 C   0  0  0  0  0  0  0  0  0  0  0  0
    2.2770   18.7040   12.0690 O   0  0  0  0  0  0  0  0  0  0  0  0
    3.3340   19.1430   11.1930 C   0  0  0  0  0  0  0  0  0  0  0  0
    2.6000   18.5150   14.4200 C   0  0  0  0  0  0  0  0  0  0  0  0
    3.1250   14.6210   11.4360 C   0  0  0  0  0  0  0  0  0  0  0  0
    4.2230   20.3740   16.4630 O   0  0  0  0  0  0  0  0  0  0  0  0
    0.8640   17.9230   17.2450 H   0  0  0  0  0  0  0  0  0  0  0  0
    0.1530   15.6390   17.3520 H   0  0  0  0  0  0  0  0  0  0  0  0
   -1.9300   14.5850   18.0690 H   0  0  0  0  0  0  0  0  0  0  0  0
    0.8460   16.9550   21.3390 H   0  0  0  0  0  0  0  0  0  0  0  0
    3.8340   17.9940   17.4380 H   0  0  0  0  0  0  0  0  0  0  0  0
   -1.2960   15.9970   22.0190 H   0  0  0  0  0  0  0  0  0  0  0  0
   -2.6670   14.7740   20.3980 H   0  0  0  0  0  0  0  0  0  0  0  0
    3.2730   16.0400   17.2830 H   0  0  0  0  0  0  0  0  0  0  0  0
    3.4040   14.7580   14.0290 H   0  0  0  0  0  0  0  0  0  0  0  0
    2.1690   20.3460   16.5470 H   0  0  0  0  0  0  0  0  0  0  0  0
    3.0050   20.1920   18.0860 H   0  0  0  0  0  0  0  0  0  0  0  0
    2.9110   19.6660   10.3360 H   0  0  0  0  0  0  0  0  0  0  0  0
    3.9990   19.8240   11.7240 H   0  0  0  0  0  0  0  0  0  0  0  0
    3.9120   18.2920   10.8310 H   0  0  0  0  0  0  0  0  0  0  0  0
    2.3570   19.5420   14.5020 H   0  0  0  0  0  0  0  0  0  0  0  0
    3.0300   14.4440   10.3650 H   0  0  0  0  0  0  0  0  0  0  0  0
    4.1330   14.3420   11.7450 H   0  0  0  0  0  0  0  0  0  0  0  0
    2.4050   13.9900   11.9570 H   0  0  0  0  0  0  0  0  0  0  0  0
    4.9670   20.0230   16.9580 H   0  0  0  0  0  0  0  0  0  0  0  0
  1  2  2  0  0  0  0
  2  3  1  0  0  0  0
  2  4  1  0  0  0  0
  3  8  1  0  0  0  0
  3 24  1  0  0  0  0
  4  5  2  0  0  0  0
  4  7  1  0  0  0  0
  5  6  1  0  0  0  0
  5 25  1  0  0  0  0
  6 10  2  0  0  0  0
  6 26  1  0  0  0  0
  7  9  2  0  0  0  0
  7 27  1  0  0  0  0
  8 11  1  0  0  0  0
  8 16  1  0  0  0  0
  8 28  1  0  0  0  0
  9 10  1  0  0  0  0
  9 29  1  0  0  0  0
 10 30  1  0  0  0  0
 11 12  2  0  0  0  0
 11 21  1  0  0  0  0
 12 13  1  0  0  0  0
 12 14  1  0  0  0  0
 13 31  1  0  0  0  0
 14 15  2  0  0  0  0
 14 32  1  0  0  0  0
 15 17  1  0  0  0  0
 15 18  1  0  0  0  0
 16 23  1  0  0  0  0
 16 33  1  0  0  0  0
 16 34  1  0  0  0  0
 17 22  1  0  0  0  0
 18 19  1  0  0  0  0
 18 21  2  0  0  0  0
 19 20  1  0  0  0  0
 20 35  1  0  0  0  0
 20 36  1  0  0  0  0
 20 37  1  0  0  0  0
 21 38  1  0  0  0  0
 22 39  1  0  0  0  0
 22 40  1  0  0  0  0
 22 41  1  0  0  0  0
 23 42  1  0  0  0  0
M  END
> <rseq>
1

> <mseq>
100

> <S>
-5.183604

> <rmsd_refine>
1.726871

> <E_conf>
3.741509

> <E_score1>
-9.214346

> <E_refine>
-23.5241

> <E_score2>
-5.183604

>  <$File>
outputs/pdb_4j58_cleaned.pdb_2024_06_17__22_47_40_V2_BS398_MIN1_/SDF/sdf_db.sdf

> <Rec_index>
1

>  <PLIF_raw>
[[4,7,9,10,6,5],[1212,1212,1212,1212,1212,1212],[81,81,81,81,81,81],[10,10,10,10,10,10],[0.5,0.5,0.5,0.5,0.5,0.5]]

> <FP:PLIF>
27

>  <PLIF_ligidx>
[[4,7,9,10,6,5]]

$$$$
100
  MOE2022           3D

 45 47  0  0  1  0  0  0  0  0999 V2000
    5.5560   14.6540    9.9690 C   0  0  0  0  0  0  0  0  0  0  0  0
    4.6460   14.3840   10.9860 C   0  0  0  0  0  0  0  0  0  0  0  0
    3.7640   15.3810   11.4220 C   0  0  0  0  0  0  0  0  0  0  0  0
    6.4350   13.6820    9.5880 O   0  0  0  0  0  0  0  0  0  0  0  0
    3.7990   16.6270   10.7650 C   0  0  0  0  0  0  0  0  0  0  0  0
    2.8630   15.1080   12.5380 C   0  0  0  0  0  0  0  0  0  0  0  0
    2.8020   16.0270   13.5630 N   0  0  0  0  0  0  0  0  0  0  0  0
    2.1800   14.0900   12.6110 O   0  0  0  0  0  0  0  0  0  0  0  0
    5.5920   15.8950    9.3350 C   0  0  0  0  0  0  0  0  0  0  0  0
    2.9360   17.6280   11.1100 O   0  0  0  0  0  0  0  0  0  0  0  0
    1.9020   15.9170   14.7130 C   0  0  1  0  0  0  0  0  0  0  0  0
    2.5380   16.5040   15.9870 C   0  0  0  0  0  0  0  0  0  0  0  0
    4.7020   16.8840    9.7330 C   0  0  0  0  0  0  0  0  0  0  0  0
    0.5340   16.5790   14.4360 C   0  0  0  0  0  0  0  0  0  0  0  0
   -0.3330   16.6890   15.5740 O   0  0  0  0  0  0  0  0  0  0  0  0
    0.1540   16.0690   16.7610 C   0  0  1  0  0  0  0  0  0  0  0  0
    1.5100   16.7200   17.1190 C   0  0  1  0  0  0  0  0  0  0  0  0
    2.0260   16.2370   18.3560 O   0  0  0  0  0  0  0  0  0  0  0  0
   -0.8400   16.1880   17.9230 C   0  0  1  0  0  0  0  0  0  0  0  0
    1.1400   16.4560   19.4490 C   0  0  2  0  0  0  0  0  0  0  0  0
    1.8420   16.0350   20.7450 C   0  0  0  0  0  0  0  0  0  0  0  0
   -1.9800   15.3980   17.6370 O   0  0  0  0  0  0  0  0  0  0  0  0
   -0.1720   15.6770   19.2150 C   0  0  1  0  0  0  0  0  0  0  0  0
   -1.0510   15.8140   20.3180 O   0  0  0  0  0  0  0  0  0  0  0  0
    4.6310   13.4270   11.4370 H   0  0  0  0  0  0  0  0  0  0  0  0
    6.3250   12.8840   10.1420 H   0  0  0  0  0  0  0  0  0  0  0  0
    3.3680   16.8860   13.4860 H   0  0  0  0  0  0  0  0  0  0  0  0
    6.2870   16.0770    8.5560 H   0  0  0  0  0  0  0  0  0  0  0  0
    2.2770   17.3090   11.7580 H   0  0  0  0  0  0  0  0  0  0  0  0
    1.7250   14.8570   14.8930 H   0  0  0  0  0  0  0  0  0  0  0  0
    3.3260   15.8290   16.3240 H   0  0  0  0  0  0  0  0  0  0  0  0
    2.9900   17.4680   15.7520 H   0  0  0  0  0  0  0  0  0  0  0  0
    4.7050   17.8290    9.2530 H   0  0  0  0  0  0  0  0  0  0  0  0
    0.7030   17.5830   14.0470 H   0  0  0  0  0  0  0  0  0  0  0  0
    0.0230   16.0020   13.6640 H   0  0  0  0  0  0  0  0  0  0  0  0
    0.2840   15.0100   16.5620 H   0  0  0  0  0  0  0  0  0  0  0  0
    1.3440   17.7940   17.2150 H   0  0  0  0  0  0  0  0  0  0  0  0
   -1.1320   17.2310   18.0390 H   0  0  0  0  0  0  0  0  0  0  0  0
    0.9170   17.5230   19.5160 H   0  0  0  0  0  0  0  0  0  0  0  0
    2.8270   16.5000   20.7970 H   0  0  0  0  0  0  0  0  0  0  0  0
    1.2550   16.3570   21.6050 H   0  0  0  0  0  0  0  0  0  0  0  0
    1.9490   14.9540   20.7770 H   0  0  0  0  0  0  0  0  0  0  0  0
   -2.3690   15.7200   16.8190 H   0  0  0  0  0  0  0  0  0  0  0  0
    0.0680   14.6200   19.0910 H   0  0  0  0  0  0  0  0  0  0  0  0
   -1.9090   15.4700   20.0520 H   0  0  0  0  0  0  0  0  0  0  0  0
  1  2  1  0  0  0  0
  1  4  1  0  0  0  0
  1  9  2  0  0  0  0
  2  3  2  0  0  0  0
  2 25  1  0  0  0  0
  3  5  1  0  0  0  0
  3  6  1  0  0  0  0
  4 26  1  0  0  0  0
  5 10  1  0  0  0  0
  5 13  2  0  0  0  0
  6  7  1  0  0  0  0
  6  8  2  0  0  0  0
  7 11  1  0  0  0  0
  7 27  1  0  0  0  0
  9 13  1  0  0  0  0
  9 28  1  0  0  0  0
 10 29  1  0  0  0  0
 11 12  1  0  0  0  0
 11 14  1  0  0  0  0
 11 30  1  0  0  0  0
 12 17  1  0  0  0  0
 12 31  1  0  0  0  0
 12 32  1  0  0  0  0
 13 33  1  0  0  0  0
 14 15  1  0  0  0  0
 14 34  1  0  0  0  0
 14 35  1  0  0  0  0
 15 16  1  0  0  0  0
 16 17  1  0  0  0  0
 16 19  1  0  0  0  0
 16 36  1  0  0  0  0
 17 18  1  0  0  0  0
 17 37  1  0  0  0  0
 18 20  1  0  0  0  0
 19 22  1  0  0  0  0
 19 23  1  0  0  0  0
 19 38  1  0  0  0  0
 20 21  1  0  0  0  0
 20 23  1  0  0  0  0
 20 39  1  0  0  0  0
 21 40  1  0  0  0  0
 21 41  1  0  0  0  0
 21 42  1  0  0  0  0
 22 43  1  0  0  0  0
 23 24  1  0  0  0  0
 23 44  1  0  0  0  0
 24 45  1  0  0  0  0
M  END
> <rseq>
1

> <mseq>
101

> <S>
-5.723926

> <rmsd_refine>
1.303716

> <E_conf>
26.71948

> <E_score1>
-9.970166

> <E_refine>
-32.06727

> <E_score2>
-5.723926

>  <$File>
outputs/pdb_4j58_cleaned.pdb_2024_06_17__22_47_40_V2_BS398_MIN1_/SDF/sdf_db.sdf

> <Rec_index>
1

>  <PLIF_raw>
[[],[],[],[],[]]

>  <PLIF_ligidx>
[]

$$$$
101
  MOE2022           3D

 46 48  0  0  1  0  0  0  0  0999 V2000
    7.8850   20.9090   18.9520 C   0  0  0  0  0  0  0  0  0  0  0  0
    6.5780   20.1370   18.8480 C   0  0  0  0  0  0  0  0  0  0  0  0
    5.7570   20.1230   17.7740 C   0  0  0  0  0  0  0  0  0  0  0  0
    4.5300   19.3280   17.6570 C   0  0  0  0  0  0  0  0  0  0  0  0
    3.8980   19.2330   16.4170 C   0  0  0  0  0  0  0  0  0  0  0  0
    3.9770   18.6310   18.7340 C   0  0  0  0  0  0  0  0  0  0  0  0
    8.2180   21.8920   17.8180 C   0  0  0  0  0  0  0  0  0  0  0  0
    2.7560   18.4490   16.2430 C   0  0  0  0  0  0  0  0  0  0  0  0
    2.2270   17.7350   17.3290 C   0  0  0  0  0  0  0  0  0  0  0  0
    7.3190   22.9810   17.7870 O   0  0  0  0  0  0  0  0  0  0  0  0
    2.0410   18.3160   14.9030 C   0  0  1  0  0  0  0  0  0  0  0  0
    2.8480   17.8160   18.5930 C   0  0  0  0  0  0  0  0  0  0  0  0
    2.3810   17.0650   19.7730 C   0  0  0  0  0  0  0  0  0  0  0  0
    0.9970   16.8380   17.1400 C   0  0  0  0  0  0  0  0  0  0  0  0
    0.5350   16.5580   15.6940 C   0  0  2  0  0  0  0  0  0  0  0  0
    0.0030   15.1900   15.5740 N   0  3  0  0  0  0  0  0  0  0  0  0
    1.1510   16.9070   20.0040 O   0  0  0  0  0  0  0  0  0  0  0  0
    3.2350   16.5890   20.5650 O   0  5  0  0  0  0  0  0  0  0  0  0
    2.6660   18.9520   13.6320 C   0  0  0  0  0  0  0  0  0  0  0  0
    1.6850   16.8200   14.7140 C   0  0  1  0  0  0  0  0  0  0  0  0
    3.3500   17.9560   12.8220 N   0  0  0  0  0  0  0  0  0  0  0  0
    1.4450   16.4920   13.2280 C   0  0  0  0  0  0  0  0  0  0  0  0
    2.7430   16.8160   12.4770 C   0  0  0  0  0  0  0  0  0  0  0  0
    3.2520   16.0080   11.7070 O   0  0  0  0  0  0  0  0  0  0  0  0
    7.8990   21.4490   19.8880 H   0  0  0  0  0  0  0  0  0  0  0  0
    8.6940   20.1940   19.0220 H   0  0  0  0  0  0  0  0  0  0  0  0
    6.3670   19.5570   19.7070 H   0  0  0  0  0  0  0  0  0  0  0  0
    6.0010   20.6980   16.9190 H   0  0  0  0  0  0  0  0  0  0  0  0
    4.3150   19.7660   15.6070 H   0  0  0  0  0  0  0  0  0  0  0  0
    4.4210   18.7130   19.6880 H   0  0  0  0  0  0  0  0  0  0  0  0
    9.2240   22.2860   17.9670 H   0  0  0  0  0  0  0  0  0  0  0  0
    8.2020   21.3790   16.8560 H   0  0  0  0  0  0  0  0  0  0  0  0
    6.4240   22.6330   17.7590 H   0  0  0  0  0  0  0  0  0  0  0  0
    1.1140   18.8770   15.0450 H   0  0  0  0  0  0  0  0  0  0  0  0
    1.2230   15.8840   17.6130 H   0  0  0  0  0  0  0  0  0  0  0  0
    0.1550   17.2810   17.6730 H   0  0  0  0  0  0  0  0  0  0  0  0
   -0.2660   17.2590   15.4550 H   0  0  0  0  0  0  0  0  0  0  0  0
   -0.3050   15.0220   14.6280 H   0  0  0  0  0  0  0  0  0  0  0  0
    0.7320   14.5330   15.8230 H   0  0  0  0  0  0  0  0  0  0  0  0
   -0.7700   15.0780   16.2140 H   0  0  0  0  0  0  0  0  0  0  0  0
    1.8550   19.3610   13.0270 H   0  0  0  0  0  0  0  0  0  0  0  0
    3.3280   19.7820   13.8620 H   0  0  0  0  0  0  0  0  0  0  0  0
    2.5400   16.2120   15.0260 H   0  0  0  0  0  0  0  0  0  0  0  0
    4.2350   18.1930   12.4010 H   0  0  0  0  0  0  0  0  0  0  0  0
    1.2140   15.4330   13.1050 H   0  0  0  0  0  0  0  0  0  0  0  0
    0.6260   17.0950   12.8340 H   0  0  0  0  0  0  0  0  0  0  0  0
  1  2  1  0  0  0  0
  1  7  1  0  0  0  0
  1 25  1  0  0  0  0
  1 26  1  0  0  0  0
  2  3  2  0  0  0  0
  2 27  1  0  0  0  0
  3  4  1  0  0  0  0
  3 28  1  0  0  0  0
  4  5  2  0  0  0  0
  4  6  1  0  0  0  0
  5  8  1  0  0  0  0
  5 29  1  0  0  0  0
  6 12  2  0  0  0  0
  6 30  1  0  0  0  0
  7 10  1  0  0  0  0
  7 31  1  0  0  0  0
  7 32  1  0  0  0  0
  8  9  2  0  0  0  0
  8 11  1  0  0  0  0
  9 12  1  0  0  0  0
  9 14  1  0  0  0  0
 10 33  1  0  0  0  0
 11 19  1  0  0  0  0
 11 20  1  0  0  0  0
 11 34  1  0  0  0  0
 12 13  1  0  0  0  0
 13 17  2  0  0  0  0
 13 18  1  0  0  0  0
 14 15  1  0  0  0  0
 14 35  1  0  0  0  0
 14 36  1  0  0  0  0
 15 16  1  0  0  0  0
 15 20  1  0  0  0  0
 15 37  1  0  0  0  0
 16 38  1  0  0  0  0
 16 39  1  0  0  0  0
 16 40  1  0  0  0  0
 19 21  1  0  0  0  0
 19 41  1  0  0  0  0
 19 42  1  0  0  0  0
 20 22  1  0  0  0  0
 20 43  1  0  0  0  0
 21 23  1  0  0  0  0
 21 44  1  0  0  0  0
 22 23  1  0  0  0  0
 22 45  1  0  0  0  0
 22 46  1  0  0  0  0
 23 24  2  0  0  0  0
M  CHG  1  16   1
M  CHG  1  18  -1
M  END
> <rseq>
1

> <mseq>
102

> <S>
-5.735225

> <rmsd_refine>
0.8554336

> <E_conf>
-136.0888

> <E_score1>
-8.970339

> <E_refine>
-28.09417

> <E_score2>
-5.735225

>  <$File>
outputs/pdb_4j58_cleaned.pdb_2024_06_17__22_47_40_V2_BS398_MIN1_/SDF/sdf_db.sdf

> <Rec_index>
1

>  <PLIF_raw>
[[16,4,6,12,9,8,5],[1071,954,954,954,954,954,954],[71,62,62,62,62,62,62],[3,10,10,10,10,10,10],[2.9,0.7,0.7,0.7,0.7,0.7,0.7]]

> <FP:PLIF>
21 7 14

>  <PLIF_ligidx>
[[4,6,12,9,8,5],16,16]

$$$$
102
  MOE2022           3D

 36 38  0  0  1  0  0  0  0  0999 V2000
    5.3640   14.7140    9.8320 C   0  0  0  0  0  0  0  0  0  0  0  0
    4.5700   14.4800   10.9480 C   0  0  0  0  0  0  0  0  0  0  0  0
    3.7160   15.4860   11.4270 C   0  0  0  0  0  0  0  0  0  0  0  0
    6.2170   13.7320    9.3990 O   0  0  0  0  0  0  0  0  0  0  0  0
    3.6650   16.7180   10.7480 C   0  0  0  0  0  0  0  0  0  0  0  0
    2.9170   15.2520   12.6260 C   0  0  0  0  0  0  0  0  0  0  0  0
    2.6580   16.3230   13.4460 N   0  0  0  0  0  0  0  0  0  0  0  0
    2.4900   14.1450   12.9440 O   0  0  0  0  0  0  0  0  0  0  0  0
    5.2960   15.9390    9.1650 C   0  0  0  0  0  0  0  0  0  0  0  0
    2.0520   16.2160   14.7860 C   0  0  1  0  0  0  0  0  0  0  0  0
    3.0850   16.4490   15.8600 C   0  0  0  0  0  0  0  0  0  0  0  0
    0.9020   17.1820   14.9340 C   0  0  0  0  0  0  0  0  0  0  0  0
    3.8670   15.5720   16.1410 O   0  0  0  0  0  0  0  0  0  0  0  0
   -0.1960   16.9480   14.4630 O   0  0  0  0  0  0  0  0  0  0  0  0
    1.1350   18.3940   15.5840 N   0  0  0  0  0  0  0  0  0  0  0  0
    6.0520   16.1600    8.0550 O   0  0  0  0  0  0  0  0  0  0  0  0
    3.2090   17.6890   16.4670 N   0  0  0  0  0  0  0  0  0  0  0  0
    0.1390   19.4790   15.4560 C   0  0  0  0  0  0  0  0  0  0  0  0
    0.1130   20.4200   16.6590 C   0  0  0  0  0  0  0  0  0  0  0  0
    4.4500   16.9440    9.6220 C   0  0  0  0  0  0  0  0  0  0  0  0
    1.4540   20.8140   17.0540 N   0  0  0  0  0  0  0  0  0  0  0  0
    2.3250   18.6250   16.3250 C   0  0  0  0  0  0  0  0  0  0  0  0
    2.5070   19.9430   16.9570 C   0  0  0  0  0  0  0  0  0  0  0  0
    3.5830   20.3190   17.4180 O   0  0  0  0  0  0  0  0  0  0  0  0
    4.6180   13.5440   11.4410 H   0  0  0  0  0  0  0  0  0  0  0  0
    6.1660   12.9550    9.9920 H   0  0  0  0  0  0  0  0  0  0  0  0
    3.0170   17.4850   11.0870 H   0  0  0  0  0  0  0  0  0  0  0  0
    3.0420   17.2430   13.1800 H   0  0  0  0  0  0  0  0  0  0  0  0
    1.6630   15.2140   14.9130 H   0  0  0  0  0  0  0  0  0  0  0  0
    6.5820   15.3640    7.8550 H   0  0  0  0  0  0  0  0  0  0  0  0
    0.3610   20.0540   14.5660 H   0  0  0  0  0  0  0  0  0  0  0  0
   -0.8600   19.0910   15.3090 H   0  0  0  0  0  0  0  0  0  0  0  0
   -0.4780   21.3040   16.4170 H   0  0  0  0  0  0  0  0  0  0  0  0
   -0.3700   19.9040   17.4880 H   0  0  0  0  0  0  0  0  0  0  0  0
    4.4020   17.8720    9.1120 H   0  0  0  0  0  0  0  0  0  0  0  0
    1.5760   21.6730   17.6140 H   0  0  0  0  0  0  0  0  0  0  0  0
  1  2  1  0  0  0  0
  1  4  1  0  0  0  0
  1  9  2  0  0  0  0
  2  3  2  0  0  0  0
  2 25  1  0  0  0  0
  3  5  1  0  0  0  0
  3  6  1  0  0  0  0
  4 26  1  0  0  0  0
  5 20  2  0  0  0  0
  5 27  1  0  0  0  0
  6  7  1  0  0  0  0
  6  8  2  0  0  0  0
  7 10  1  0  0  0  0
  7 28  1  0  0  0  0
  9 16  1  0  0  0  0
  9 20  1  0  0  0  0
 10 11  1  0  0  0  0
 10 12  1  0  0  0  0
 10 29  1  0  0  0  0
 11 13  2  0  0  0  0
 11 17  1  0  0  0  0
 12 14  2  0  0  0  0
 12 15  1  0  0  0  0
 15 18  1  0  0  0  0
 15 22  1  0  0  0  0
 16 30  1  0  0  0  0
 17 22  2  0  0  0  0
 18 19  1  0  0  0  0
 18 31  1  0  0  0  0
 18 32  1  0  0  0  0
 19 21  1  0  0  0  0
 19 33  1  0  0  0  0
 19 34  1  0  0  0  0
 20 35  1  0  0  0  0
 21 23  1  0  0  0  0
 21 36  1  0  0  0  0
 22 23  1  0  0  0  0
 23 24  2  0  0  0  0
M  END
> <rseq>
1

> <mseq>
103

> <S>
-5.00103

> <rmsd_refine>
1.029572

> <E_conf>
24.86585

> <E_score1>
-10.09729

> <E_refine>
-25.19426

> <E_score2>
-5.00103

>  <$File>
outputs/pdb_4j58_cleaned.pdb_2024_06_17__22_47_40_V2_BS398_MIN1_/SDF/sdf_db.sdf

> <Rec_index>
1

>  <PLIF_raw>
[[13,17],[954,954],[62,62],[2,2],[0.9,1.5]]

> <FP:PLIF>
20 23

>  <PLIF_ligidx>
[[13,17],17]

$$$$
103
  MOE2022           3D

 38 39  0  0  0  0  0  0  0  0999 V2000
    5.1710   15.0250    9.8970 C   0  0  0  0  0  0  0  0  0  0  0  0
    4.4830   14.7870   11.0810 C   0  0  0  0  0  0  0  0  0  0  0  0
    3.5650   15.7320   11.5710 C   0  0  0  0  0  0  0  0  0  0  0  0
    6.0960   14.1020    9.4760 O   0  0  0  0  0  0  0  0  0  0  0  0
    3.3350   16.9010   10.8210 C   0  0  0  0  0  0  0  0  0  0  0  0
    2.9120   15.5130   12.8630 C   0  0  0  0  0  0  0  0  0  0  0  0
    1.7610   16.1990   13.1540 N   0  0  0  0  0  0  0  0  0  0  0  0
    3.3560   14.7480   13.7200 O   0  0  0  0  0  0  0  0  0  0  0  0
    4.9300   16.1910    9.1640 C   0  0  0  0  0  0  0  0  0  0  0  0
    1.1220   16.2350   14.4510 C   0  0  0  0  0  0  0  0  0  0  0  0
    1.8320   16.7220   15.5620 C   0  0  0  0  0  0  0  0  0  0  0  0
   -0.2120   15.8160   14.5180 C   0  0  0  0  0  0  0  0  0  0  0  0
    3.0410   17.1010   15.5650 O   0  0  0  0  0  0  0  0  0  0  0  0
   -0.9190   15.4630   13.5350 O   0  5  0  0  0  0  0  0  0  0  0  0
   -0.8140   15.7890   15.8000 N   0  0  0  0  0  0  0  0  0  0  0  0
    5.5800   16.4380    7.9850 O   0  0  0  0  0  0  0  0  0  0  0  0
    1.1230   16.8320   16.7840 N   0  0  0  0  0  0  0  0  0  0  0  0
   -2.1940   15.2930   15.9500 C   0  0  0  0  0  0  0  0  0  0  0  0
   -0.1640   16.3000   16.9330 C   0  0  0  0  0  0  0  0  0  0  0  0
    4.0120   17.1290    9.6260 C   0  0  0  0  0  0  0  0  0  0  0  0
   -0.7170   16.2900   18.0420 O   0  0  0  0  0  0  0  0  0  0  0  0
    1.7520   17.4800   17.9510 C   0  0  0  0  0  0  0  0  0  0  0  0
    2.4320   16.4800   18.8880 C   0  0  0  0  0  0  0  0  0  0  0  0
    3.1460   17.1330   19.9170 O   0  0  0  0  0  0  0  0  0  0  0  0
    4.6670   13.8940   11.6210 H   0  0  0  0  0  0  0  0  0  0  0  0
    6.5520   14.3950    8.6670 H   0  0  0  0  0  0  0  0  0  0  0  0
    2.6480   17.6290   11.1680 H   0  0  0  0  0  0  0  0  0  0  0  0
    1.2790   16.6540   12.3660 H   0  0  0  0  0  0  0  0  0  0  0  0
    6.1670   15.7030    7.7300 H   0  0  0  0  0  0  0  0  0  0  0  0
   -2.4700   14.5940   15.1750 H   0  0  0  0  0  0  0  0  0  0  0  0
   -2.3370   14.7750   16.8880 H   0  0  0  0  0  0  0  0  0  0  0  0
   -2.9030   16.1090   15.9130 H   0  0  0  0  0  0  0  0  0  0  0  0
    3.8300   18.0140    9.0720 H   0  0  0  0  0  0  0  0  0  0  0  0
    2.4730   18.2210   17.6330 H   0  0  0  0  0  0  0  0  0  0  0  0
    1.0170   18.0480   18.5050 H   0  0  0  0  0  0  0  0  0  0  0  0
    1.6850   15.8220   19.3340 H   0  0  0  0  0  0  0  0  0  0  0  0
    3.1230   15.8690   18.3090 H   0  0  0  0  0  0  0  0  0  0  0  0
    2.5900   17.8270   20.2810 H   0  0  0  0  0  0  0  0  0  0  0  0
  1  2  1  0  0  0  0
  1  4  1  0  0  0  0
  1  9  2  0  0  0  0
  2  3  2  0  0  0  0
  2 25  1  0  0  0  0
  3  5  1  0  0  0  0
  3  6  1  0  0  0  0
  4 26  1  0  0  0  0
  5 20  2  0  0  0  0
  5 27  1  0  0  0  0
  6  7  1  0  0  0  0
  6  8  2  0  0  0  0
  7 10  1  0  0  0  0
  7 28  1  0  0  0  0
  9 16  1  0  0  0  0
  9 20  1  0  0  0  0
 10 11  1  0  0  0  0
 10 12  2  0  0  0  0
 11 13  2  0  0  0  0
 11 17  1  0  0  0  0
 12 14  1  0  0  0  0
 12 15  1  0  0  0  0
 15 18  1  0  0  0  0
 15 19  1  0  0  0  0
 16 29  1  0  0  0  0
 17 19  1  0  0  0  0
 17 22  1  0  0  0  0
 18 30  1  0  0  0  0
 18 31  1  0  0  0  0
 18 32  1  0  0  0  0
 19 21  2  0  0  0  0
 20 33  1  0  0  0  0
 22 23  1  0  0  0  0
 22 34  1  0  0  0  0
 22 35  1  0  0  0  0
 23 24  1  0  0  0  0
 23 36  1  0  0  0  0
 23 37  1  0  0  0  0
 24 38  1  0  0  0  0
M  CHG  1  14  -1
M  END
> <rseq>
1

> <mseq>
104

> <S>
-5.218374

> <rmsd_refine>
2.367797

> <E_conf>
-149.92

> <E_score1>
-10.80549

> <E_refine>
-25.90256

> <E_score2>
-5.218374

>  <$File>
outputs/pdb_4j58_cleaned.pdb_2024_06_17__22_47_40_V2_BS398_MIN1_/SDF/sdf_db.sdf

> <Rec_index>
1

>  <PLIF_raw>
[8,1067,71,4,0.5]

> <FP:PLIF>
34

>  <PLIF_ligidx>
8

$$$$
104
  MOE2022           3D

 34 35  0  0  0  0  0  0  0  0999 V2000
    3.4470   16.1000   21.3310 O   0  0  0  0  0  0  0  0  0  0  0  0
    2.2750   15.6450   21.3670 C   0  0  0  0  0  0  0  0  0  0  0  0
    1.8400   15.0350   22.3790 O   0  5  0  0  0  0  0  0  0  0  0  0
    1.4370   15.7960   20.1760 C   0  0  0  0  0  0  0  0  0  0  0  0
    0.2060   15.7250   20.1760 O   0  0  0  0  0  0  0  0  0  0  0  0
    2.1050   16.0280   19.0020 N   0  0  0  0  0  0  0  0  0  0  0  0
    1.5550   16.7630   17.8840 C   0  0  0  0  0  0  0  0  0  0  0  0
    2.5800   17.7210   17.2930 C   0  0  0  0  0  0  0  0  0  0  0  0
    2.7420   17.8800   15.9130 C   0  0  0  0  0  0  0  0  0  0  0  0
    3.6130   18.8500   15.4060 C   0  0  0  0  0  0  0  0  0  0  0  0
    3.3760   18.4910   18.1440 C   0  0  0  0  0  0  0  0  0  0  0  0
    3.7140   19.0510   14.0540 O   0  0  0  0  0  0  0  0  0  0  0  0
    4.3820   19.6260   16.2650 C   0  0  0  0  0  0  0  0  0  0  0  0
    4.2930   19.4400   17.6550 C   0  0  0  0  0  0  0  0  0  0  0  0
    5.1320   20.2240   18.5740 C   0  0  0  0  0  0  0  0  0  0  0  0
    2.0530   17.0160   15.0070 N   0  0  0  0  0  0  0  0  0  0  0  0
    0.8070   17.3740   14.4680 C   0  0  0  0  0  0  0  0  0  0  0  0
    5.7690   21.2220   18.1370 O   0  0  0  0  0  0  0  0  0  0  0  0
    2.6420   15.7870   14.6990 C   0  0  0  0  0  0  0  0  0  0  0  0
    5.2290   19.8980   19.7910 O   0  5  0  0  0  0  0  0  0  0  0  0
    0.3320   18.4780   14.7650 O   0  0  0  0  0  0  0  0  0  0  0  0
    0.1660   16.4280   13.5970 C   0  0  0  0  0  0  0  0  0  0  0  0
    2.0150   14.9080   13.8680 C   0  0  0  0  0  0  0  0  0  0  0  0
    0.7500   15.2340   13.3040 C   0  0  0  0  0  0  0  0  0  0  0  0
    3.1360   16.0130   19.0560 H   0  0  0  0  0  0  0  0  0  0  0  0
    1.1900   16.0590   17.1510 H   0  0  0  0  0  0  0  0  0  0  0  0
    0.6890   17.3300   18.1990 H   0  0  0  0  0  0  0  0  0  0  0  0
    3.2930   18.3560   19.1910 H   0  0  0  0  0  0  0  0  0  0  0  0
    3.0450   18.5080   13.5930 H   0  0  0  0  0  0  0  0  0  0  0  0
    5.0380   20.3570   15.8680 H   0  0  0  0  0  0  0  0  0  0  0  0
    3.5800   15.6130   15.1630 H   0  0  0  0  0  0  0  0  0  0  0  0
   -0.7760   16.6860   13.1860 H   0  0  0  0  0  0  0  0  0  0  0  0
    2.4580   13.9730   13.6360 H   0  0  0  0  0  0  0  0  0  0  0  0
    0.2720   14.5410   12.6600 H   0  0  0  0  0  0  0  0  0  0  0  0
  1  2  2  0  0  0  0
  2  3  1  0  0  0  0
  2  4  1  0  0  0  0
  4  5  2  0  0  0  0
  4  6  1  0  0  0  0
  6  7  1  0  0  0  0
  6 25  1  0  0  0  0
  7  8  1  0  0  0  0
  7 26  1  0  0  0  0
  7 27  1  0  0  0  0
  8  9  2  0  0  0  0
  8 11  1  0  0  0  0
  9 10  1  0  0  0  0
  9 16  1  0  0  0  0
 10 12  1  0  0  0  0
 10 13  2  0  0  0  0
 11 14  2  0  0  0  0
 11 28  1  0  0  0  0
 12 29  1  0  0  0  0
 13 14  1  0  0  0  0
 13 30  1  0  0  0  0
 14 15  1  0  0  0  0
 15 18  2  0  0  0  0
 15 20  1  0  0  0  0
 16 17  1  0  0  0  0
 16 19  1  0  0  0  0
 17 21  2  0  0  0  0
 17 22  1  0  0  0  0
 19 23  2  0  0  0  0
 19 31  1  0  0  0  0
 22 24  2  0  0  0  0
 22 32  1  0  0  0  0
 23 24  1  0  0  0  0
 23 33  1  0  0  0  0
 24 34  1  0  0  0  0
M  CHG  1   3  -1
M  CHG  1  20  -1
M  END
> <rseq>
1

> <mseq>
105

> <S>
-5.671888

> <rmsd_refine>
1.633801

> <E_conf>
-24.69946

> <E_score1>
-8.918054

> <E_refine>
-29.86273

> <E_score2>
-5.671888

>  <$File>
outputs/pdb_4j58_cleaned.pdb_2024_06_17__22_47_40_V2_BS398_MIN1_/SDF/sdf_db.sdf

> <Rec_index>
1

>  <PLIF_raw>
[[6,20,3,3],[1617,1499,1206,1212],[110,101,81,81],[1,4,7,7],[0.6,2.4,5.837517846,3.706570124]]

> <FP:PLIF>
24 25 11 12 26

>  <PLIF_ligidx>
[[3,3],[3,3],20,20,6]

$$$$
105
  MOE2022           3D

 38 39  0  0  0  0  0  0  0  0999 V2000
    3.2500   16.3120   21.0140 O   0  0  0  0  0  0  0  0  0  0  0  0
    2.0750   15.8550   20.9340 C   0  0  0  0  0  0  0  0  0  0  0  0
    1.5360   15.2690   21.9150 O   0  5  0  0  0  0  0  0  0  0  0  0
    1.3270   16.0010   19.6770 C   0  0  0  0  0  0  0  0  0  0  0  0
    0.1200   15.7710   19.5740 O   0  0  0  0  0  0  0  0  0  0  0  0
    2.0250   16.4190   18.5690 N   0  0  0  0  0  0  0  0  0  0  0  0
    1.4280   16.8060   17.2940 C   0  0  0  0  0  0  0  0  0  0  0  0
    2.1860   17.9580   16.6570 C   0  0  0  0  0  0  0  0  0  0  0  0
    2.7620   17.8780   15.3760 C   0  0  0  0  0  0  0  0  0  0  0  0
    3.4210   19.0130   14.8750 C   0  0  0  0  0  0  0  0  0  0  0  0
    2.3140   19.1330   17.3970 C   0  0  0  0  0  0  0  0  0  0  0  0
    3.8070   19.0120   13.5720 O   0  0  0  0  0  0  0  0  0  0  0  0
    3.0640   20.2030   16.9260 C   0  0  0  0  0  0  0  0  0  0  0  0
    3.6800   20.1380   15.6730 C   0  0  0  0  0  0  0  0  0  0  0  0
    4.6030   21.1890   15.2450 C   0  0  0  0  0  0  0  0  0  0  0  0
    5.7260   21.4490   16.0170 N   0  0  0  0  0  0  0  0  0  0  0  0
    6.1540   20.6860   17.1810 C   0  0  0  0  0  0  0  0  0  0  0  0
    2.7320   16.6520   14.5840 C   0  0  0  0  0  0  0  0  0  0  0  0
    3.3070   15.6250   15.0280 O   0  0  0  0  0  0  0  0  0  0  0  0
    6.8060   22.3410   15.6290 C   0  0  0  0  0  0  0  0  0  0  0  0
    2.1990   16.6640   13.4420 O   0  5  0  0  0  0  0  0  0  0  0  0
    7.8880   22.2600   16.7100 C   0  0  0  0  0  0  0  0  0  0  0  0
    7.6650   20.8700   17.3190 C   0  0  0  0  0  0  0  0  0  0  0  0
    4.4550   21.8390   14.2120 O   0  0  0  0  0  0  0  0  0  0  0  0
    3.0460   16.5350   18.6640 H   0  0  0  0  0  0  0  0  0  0  0  0
    1.3810   15.9450   16.6440 H   0  0  0  0  0  0  0  0  0  0  0  0
    0.3990   17.1030   17.4410 H   0  0  0  0  0  0  0  0  0  0  0  0
    1.8490   19.2010   18.3440 H   0  0  0  0  0  0  0  0  0  0  0  0
    3.4290   18.2240   13.1240 H   0  0  0  0  0  0  0  0  0  0  0  0
    3.1770   21.0670   17.5290 H   0  0  0  0  0  0  0  0  0  0  0  0
    5.6640   21.0840   18.0700 H   0  0  0  0  0  0  0  0  0  0  0  0
    5.9140   19.6280   17.0830 H   0  0  0  0  0  0  0  0  0  0  0  0
    7.2250   22.0080   14.6780 H   0  0  0  0  0  0  0  0  0  0  0  0
    6.4510   23.3670   15.5270 H   0  0  0  0  0  0  0  0  0  0  0  0
    8.8900   22.3610   16.2920 H   0  0  0  0  0  0  0  0  0  0  0  0
    7.7060   23.0250   17.4660 H   0  0  0  0  0  0  0  0  0  0  0  0
    7.9890   20.8210   18.3590 H   0  0  0  0  0  0  0  0  0  0  0  0
    8.1780   20.1180   16.7190 H   0  0  0  0  0  0  0  0  0  0  0  0
  1  2  2  0  0  0  0
  2  3  1  0  0  0  0
  2  4  1  0  0  0  0
  4  5  2  0  0  0  0
  4  6  1  0  0  0  0
  6  7  1  0  0  0  0
  6 25  1  0  0  0  0
  7  8  1  0  0  0  0
  7 26  1  0  0  0  0
  7 27  1  0  0  0  0
  8  9  2  0  0  0  0
  8 11  1  0  0  0  0
  9 10  1  0  0  0  0
  9 18  1  0  0  0  0
 10 12  1  0  0  0  0
 10 14  2  0  0  0  0
 11 13  2  0  0  0  0
 11 28  1  0  0  0  0
 12 29  1  0  0  0  0
 13 14  1  0  0  0  0
 13 30  1  0  0  0  0
 14 15  1  0  0  0  0
 15 16  1  0  0  0  0
 15 24  2  0  0  0  0
 16 17  1  0  0  0  0
 16 20  1  0  0  0  0
 17 23  1  0  0  0  0
 17 31  1  0  0  0  0
 17 32  1  0  0  0  0
 18 19  2  0  0  0  0
 18 21  1  0  0  0  0
 20 22  1  0  0  0  0
 20 33  1  0  0  0  0
 20 34  1  0  0  0  0
 22 23  1  0  0  0  0
 22 35  1  0  0  0  0
 22 36  1  0  0  0  0
 23 37  1  0  0  0  0
 23 38  1  0  0  0  0
M  CHG  1   3  -1
M  CHG  1  21  -1
M  END
> <rseq>
1

> <mseq>
106

> <S>
-5.703923

> <rmsd_refine>
1.137311

> <E_conf>
-25.55871

> <E_score1>
-9.748166

> <E_refine>
-31.37915

> <E_score2>
-5.703923

>  <$File>
outputs/pdb_4j58_cleaned.pdb_2024_06_17__22_47_40_V2_BS398_MIN1_/SDF/sdf_db.sdf

> <Rec_index>
1

>  <PLIF_raw>
[[3,3,19,3,3,8,11,13,14,10,9],[1206,1212,1067,1206,1212,954,954,954,954,954,954],[81,81,71,81,81,62,62,62,62,62,62],[2,2,4,7,7,10,10,10,10,10,10],[2.9,0.6,0.5,5.155628328,3.812114047,0.5,0.5,0.5,0.5,0.5,0.5]]

> <FP:PLIF>
21 34 17 18 24 25

>  <PLIF_ligidx>
[[8,11,13,14,10,9],19,[3,3],3,[3,3],[3,3]]

$$$$
106
  MOE2022           3D

 45 46  0  0  1  0  0  0  0  0999 V2000
    1.9500   14.9320   21.9640 O   0  0  0  0  0  0  0  0  0  0  0  0
    1.2940   15.7470   21.2790 C   0  0  0  0  0  0  0  0  0  0  0  0
    0.2940   16.3660   21.7040 O   0  5  0  0  0  0  0  0  0  0  0  0
    1.7220   15.9320   19.8330 C   0  0  1  0  0  0  0  0  0  0  0  0
    0.6230   16.2640   18.8330 C   0  0  0  0  0  0  0  0  0  0  0  0
    2.7190   16.9580   19.5820 N   0  0  0  0  0  0  0  0  0  0  0  0
    1.2780   17.1360   17.8690 N   0  0  0  0  0  0  0  0  0  0  0  0
    2.4920   17.5480   18.3720 C   0  0  0  0  0  0  0  0  0  0  0  0
    0.5500   17.8930   16.8570 C   0  0  0  0  0  0  0  0  0  0  0  0
    3.2740   18.3200   17.8150 O   0  0  0  0  0  0  0  0  0  0  0  0
    0.9700   17.5810   15.4090 C   0  0  0  0  0  0  0  0  0  0  0  0
    0.8780   16.0910   15.0030 C   0  0  1  0  0  0  0  0  0  0  0  0
   -0.2330   15.3200   15.6350 N   0  3  0  0  0  0  0  0  0  0  0  0
    0.9640   15.8800   13.4850 C   0  0  0  0  0  0  0  0  0  0  0  0
    2.0600   15.1590   12.9930 C   0  0  0  0  0  0  0  0  0  0  0  0
    0.0070   16.3690   12.5560 C   0  0  0  0  0  0  0  0  0  0  0  0
   -1.2000   17.1020   12.9460 C   0  0  0  0  0  0  0  0  0  0  0  0
    2.9800   14.6480   13.8640 O   0  0  0  0  0  0  0  0  0  0  0  0
    2.2550   14.9310   11.6300 C   0  0  0  0  0  0  0  0  0  0  0  0
    0.2110   16.1430   11.1760 C   0  0  0  0  0  0  0  0  0  0  0  0
   -1.7960   16.9210   13.9820 O   0  0  0  0  0  0  0  0  0  0  0  0
    3.4410   14.1400   11.1060 C   0  0  0  0  0  0  0  0  0  0  0  0
   -0.7680   16.6450   10.1260 C   0  0  0  0  0  0  0  0  0  0  0  0
    1.3230   15.4330   10.7340 C   0  0  0  0  0  0  0  0  0  0  0  0
    2.1600   15.0090   19.5030 H   0  0  0  0  0  0  0  0  0  0  0  0
    0.2260   15.3680   18.3790 H   0  0  0  0  0  0  0  0  0  0  0  0
   -0.1940   16.7830   19.3070 H   0  0  0  0  0  0  0  0  0  0  0  0
    3.6720   16.8990   19.9660 H   0  0  0  0  0  0  0  0  0  0  0  0
   -0.5120   17.7190   16.9690 H   0  0  0  0  0  0  0  0  0  0  0  0
    0.6770   18.9520   17.0450 H   0  0  0  0  0  0  0  0  0  0  0  0
    0.3560   18.1950   14.7550 H   0  0  0  0  0  0  0  0  0  0  0  0
    2.0030   17.9000   15.2670 H   0  0  0  0  0  0  0  0  0  0  0  0
    1.7900   15.6790   15.4130 H   0  0  0  0  0  0  0  0  0  0  0  0
   -1.1290   15.6560   15.3050 H   0  0  0  0  0  0  0  0  0  0  0  0
   -0.1600   14.3390   15.4130 H   0  0  0  0  0  0  0  0  0  0  0  0
   -0.2060   15.4220   16.6380 H   0  0  0  0  0  0  0  0  0  0  0  0
   -1.6070   17.8140   12.2730 H   0  0  0  0  0  0  0  0  0  0  0  0
    3.6280   14.0890   13.3870 H   0  0  0  0  0  0  0  0  0  0  0  0
    4.3730   14.4880   11.5510 H   0  0  0  0  0  0  0  0  0  0  0  0
    3.3180   13.0810   11.3310 H   0  0  0  0  0  0  0  0  0  0  0  0
    3.5360   14.2430   10.0240 H   0  0  0  0  0  0  0  0  0  0  0  0
   -0.7680   17.7350   10.0910 H   0  0  0  0  0  0  0  0  0  0  0  0
   -0.5080   16.2850    9.1310 H   0  0  0  0  0  0  0  0  0  0  0  0
   -1.7800   16.3000   10.3420 H   0  0  0  0  0  0  0  0  0  0  0  0
    1.4590   15.2680    9.6960 H   0  0  0  0  0  0  0  0  0  0  0  0
  1  2  2  0  0  0  0
  2  3  1  0  0  0  0
  2  4  1  0  0  0  0
  4  5  1  0  0  0  0
  4  6  1  0  0  0  0
  4 25  1  0  0  0  0
  5  7  1  0  0  0  0
  5 26  1  0  0  0  0
  5 27  1  0  0  0  0
  6  8  1  0  0  0  0
  6 28  1  0  0  0  0
  7  8  1  0  0  0  0
  7  9  1  0  0  0  0
  8 10  2  0  0  0  0
  9 11  1  0  0  0  0
  9 29  1  0  0  0  0
  9 30  1  0  0  0  0
 11 12  1  0  0  0  0
 11 31  1  0  0  0  0
 11 32  1  0  0  0  0
 12 13  1  0  0  0  0
 12 14  1  0  0  0  0
 12 33  1  0  0  0  0
 13 34  1  0  0  0  0
 13 35  1  0  0  0  0
 13 36  1  0  0  0  0
 14 15  1  0  0  0  0
 14 16  2  0  0  0  0
 15 18  1  0  0  0  0
 15 19  2  0  0  0  0
 16 17  1  0  0  0  0
 16 20  1  0  0  0  0
 17 21  2  0  0  0  0
 17 37  1  0  0  0  0
 18 38  1  0  0  0  0
 19 22  1  0  0  0  0
 19 24  1  0  0  0  0
 20 23  1  0  0  0  0
 20 24  2  0  0  0  0
 22 39  1  0  0  0  0
 22 40  1  0  0  0  0
 22 41  1  0  0  0  0
 23 42  1  0  0  0  0
 23 43  1  0  0  0  0
 23 44  1  0  0  0  0
 24 45  1  0  0  0  0
M  CHG  1   3  -1
M  CHG  1  13   1
M  END
> <rseq>
1

> <mseq>
107

> <S>
-5.151375

> <rmsd_refine>
2.226145

> <E_conf>
-190.2261

> <E_score1>
-6.909904

> <E_refine>
-26.22501

> <E_score2>
-5.151375

>  <$File>
outputs/pdb_4j58_cleaned.pdb_2024_06_17__22_47_40_V2_BS398_MIN1_/SDF/sdf_db.sdf

> <Rec_index>
1

>  <PLIF_raw>
[[18,3,10,1,1,3,3],[1056,1206,954,1206,1212,1206,1212],[70,81,62,81,81,81,81],[3,2,2,7,7,7,7],[1.4,4.9,0.7,4.037547427,4.042909907,3.88768151,0.944356417]]

> <FP:PLIF>
20 3 17 18 24 25

>  <PLIF_ligidx>
[10,18,3,3,[1,1,3,3],[1,1,3]]

$$$$
107
  MOE2022           3D

 48 50  0  0  1  0  0  0  0  0999 V2000
    4.8290   14.5080    9.5050 C   0  0  0  0  0  0  0  0  0  0  0  0
    5.0410   15.7550    8.9300 C   0  0  0  0  0  0  0  0  0  0  0  0
    4.1200   14.4330   10.6990 C   0  0  0  0  0  0  0  0  0  0  0  0
    5.7290   15.8380    7.7700 F   0  0  0  0  0  0  0  0  0  0  0  0
    3.6380   15.5970   11.3200 C   0  0  0  0  0  0  0  0  0  0  0  0
    2.9370   15.5230   12.5870 C   0  0  0  0  0  0  0  0  0  0  0  0
    4.5660   16.9230    9.5090 C   0  0  0  0  0  0  0  0  0  0  0  0
    3.8670   16.8410   10.7060 C   0  0  0  0  0  0  0  0  0  0  0  0
    3.2140   16.4000   13.6180 N   0  0  0  0  0  0  0  0  0  0  0  0
    1.9670   14.6730   13.0580 C   0  0  0  0  0  0  0  0  0  0  0  0
    2.4520   16.0940   14.7070 C   0  0  0  0  0  0  0  0  0  0  0  0
    2.5970   16.8040   15.9210 N   0  0  0  0  0  0  0  0  0  0  0  0
    1.6530   15.0340   14.3710 C   0  0  0  0  0  0  0  0  0  0  0  0
    1.4870   16.8140   16.8730 C   0  0  0  0  0  0  0  0  0  0  0  0
    3.2000   18.1460   15.9140 C   0  0  0  0  0  0  0  0  0  0  0  0
    2.4740   19.0050   16.9560 C   0  0  1  0  0  0  0  0  0  0  0  0
    1.7160   17.9990   17.8080 C   0  0  0  0  0  0  0  0  0  0  0  0
    3.3650   19.8260   17.7630 N   0  0  0  0  0  0  0  0  0  0  0  0
    4.1830   20.7600   17.2630 C   0  0  0  0  0  0  0  0  0  0  0  0
    5.1100   21.4610   18.2530 C   0  0  0  0  0  0  0  0  0  0  0  0
    4.2540   21.0230   16.0640 O   0  0  0  0  0  0  0  0  0  0  0  0
    6.5540   20.9770   18.0730 C   0  0  0  0  0  0  0  0  0  0  0  0
    7.5240   21.7200   18.9990 C   0  0  0  0  0  0  0  0  0  0  0  0
    8.9600   21.3140   18.6660 C   0  0  0  0  0  0  0  0  0  0  0  0
    5.2000   13.6310    9.0410 H   0  0  0  0  0  0  0  0  0  0  0  0
    3.9510   13.4890   11.1510 H   0  0  0  0  0  0  0  0  0  0  0  0
    4.7310   17.8600    9.0430 H   0  0  0  0  0  0  0  0  0  0  0  0
    3.4980   17.7250   11.1570 H   0  0  0  0  0  0  0  0  0  0  0  0
    3.9110   17.1600   13.5880 H   0  0  0  0  0  0  0  0  0  0  0  0
    1.5340   13.8770   12.5090 H   0  0  0  0  0  0  0  0  0  0  0  0
    0.9360   14.5730   14.9980 H   0  0  0  0  0  0  0  0  0  0  0  0
    0.5540   16.9420   16.3390 H   0  0  0  0  0  0  0  0  0  0  0  0
    1.4230   15.8860   17.4220 H   0  0  0  0  0  0  0  0  0  0  0  0
    4.2520   18.0630   16.1500 H   0  0  0  0  0  0  0  0  0  0  0  0
    3.1300   18.6200   14.9440 H   0  0  0  0  0  0  0  0  0  0  0  0
    1.7560   19.6350   16.4280 H   0  0  0  0  0  0  0  0  0  0  0  0
    0.7780   18.4100   18.1820 H   0  0  0  0  0  0  0  0  0  0  0  0
    2.3410   17.6680   18.6390 H   0  0  0  0  0  0  0  0  0  0  0  0
    3.3400   19.6830   18.7630 H   0  0  0  0  0  0  0  0  0  0  0  0
    5.0580   22.5360   18.0760 H   0  0  0  0  0  0  0  0  0  0  0  0
    4.7850   21.2620   19.2740 H   0  0  0  0  0  0  0  0  0  0  0  0
    6.6040   19.9060   18.2780 H   0  0  0  0  0  0  0  0  0  0  0  0
    6.8520   21.1460   17.0370 H   0  0  0  0  0  0  0  0  0  0  0  0
    7.4190   22.7960   18.8560 H   0  0  0  0  0  0  0  0  0  0  0  0
    7.3070   21.4730   20.0390 H   0  0  0  0  0  0  0  0  0  0  0  0
    9.0880   20.2410   18.8120 H   0  0  0  0  0  0  0  0  0  0  0  0
    9.1810   21.5690   17.6300 H   0  0  0  0  0  0  0  0  0  0  0  0
    9.6540   21.8460   19.3140 H   0  0  0  0  0  0  0  0  0  0  0  0
  1  2  2  0  0  0  0
  1  3  1  0  0  0  0
  1 25  1  0  0  0  0
  2  4  1  0  0  0  0
  2  7  1  0  0  0  0
  3  5  2  0  0  0  0
  3 26  1  0  0  0  0
  5  6  1  0  0  0  0
  5  8  1  0  0  0  0
  6  9  1  0  0  0  0
  6 10  2  0  0  0  0
  7  8  2  0  0  0  0
  7 27  1  0  0  0  0
  8 28  1  0  0  0  0
  9 11  1  0  0  0  0
  9 29  1  0  0  0  0
 10 13  1  0  0  0  0
 10 30  1  0  0  0  0
 11 12  1  0  0  0  0
 11 13  2  0  0  0  0
 12 14  1  0  0  0  0
 12 15  1  0  0  0  0
 13 31  1  0  0  0  0
 14 17  1  0  0  0  0
 14 32  1  0  0  0  0
 14 33  1  0  0  0  0
 15 16  1  0  0  0  0
 15 34  1  0  0  0  0
 15 35  1  0  0  0  0
 16 17  1  0  0  0  0
 16 18  1  0  0  0  0
 16 36  1  0  0  0  0
 17 37  1  0  0  0  0
 17 38  1  0  0  0  0
 18 19  1  0  0  0  0
 18 39  1  0  0  0  0
 19 20  1  0  0  0  0
 19 21  2  0  0  0  0
 20 22  1  0  0  0  0
 20 40  1  0  0  0  0
 20 41  1  0  0  0  0
 22 23  1  0  0  0  0
 22 42  1  0  0  0  0
 22 43  1  0  0  0  0
 23 24  1  0  0  0  0
 23 44  1  0  0  0  0
 23 45  1  0  0  0  0
 24 46  1  0  0  0  0
 24 47  1  0  0  0  0
 24 48  1  0  0  0  0
M  END
> <rseq>
1

> <mseq>
108

> <S>
-5.889237

> <rmsd_refine>
1.27482

> <E_conf>
12.48871

> <E_score1>
-8.913265

> <E_refine>
-30.63072

> <E_score2>
-5.889237

>  <$File>
outputs/pdb_4j58_cleaned.pdb_2024_06_17__22_47_40_V2_BS398_MIN1_/SDF/sdf_db.sdf

> <Rec_index>
1

>  <PLIF_raw>
[18,1504,101,3,1.9]

> <FP:PLIF>
8 10

>  <PLIF_ligidx>
[18,18]

$$$$
108
  MOE2022           3D

 38 40  0  0  1  0  0  0  0  0999 V2000
    5.5200   14.2100   10.2600 C   0  0  0  0  0  0  0  0  0  0  0  0
    5.6450   15.5480    9.9060 C   0  0  0  0  0  0  0  0  0  0  0  0
    4.5510   16.3930   10.0710 C   0  0  0  0  0  0  0  0  0  0  0  0
    4.3110   13.7280   10.7630 C   0  0  0  0  0  0  0  0  0  0  0  0
    3.2150   14.5800   10.9330 C   0  0  0  0  0  0  0  0  0  0  0  0
    4.6470   17.7060    9.7260 O   0  0  0  0  0  0  0  0  0  0  0  0
    3.3450   15.9250   10.5820 C   0  0  0  0  0  0  0  0  0  0  0  0
    1.9100   14.0180   11.4860 C   0  0  1  0  0  0  0  0  0  0  0  0
    2.0100   13.6810   12.9040 N   0  0  0  0  0  0  0  0  0  0  0  0
    0.8260   14.9490   11.3830 O   0  0  0  0  0  0  0  0  0  0  0  0
    1.3270   14.7480   13.6590 C   0  0  2  0  0  0  0  0  0  0  0  0
    0.6400   15.6410   12.6250 C   0  0  2  0  0  0  0  0  0  0  0  0
   -0.8110   15.9580   12.9320 C   0  0  0  0  0  0  0  0  0  0  0  0
   -1.6280   15.0130   12.9880 O   0  0  0  0  0  0  0  0  0  0  0  0
   -1.0920   17.1520   13.1750 O   0  5  0  0  0  0  0  0  0  0  0  0
    2.2670   15.5270   14.5540 C   0  0  0  0  0  0  0  0  0  0  0  0
    3.4490   15.6500   14.3250 O   0  0  0  0  0  0  0  0  0  0  0  0
    1.7140   16.1190   15.6370 O   0  0  0  0  0  0  0  0  0  0  0  0
    2.3890   16.9670   16.5000 C   0  0  0  0  0  0  0  0  0  0  0  0
    2.2610   16.7450   17.8680 C   0  0  0  0  0  0  0  0  0  0  0  0
    3.1590   18.0220   16.0060 C   0  0  0  0  0  0  0  0  0  0  0  0
    3.8220   18.8540   16.9010 C   0  0  0  0  0  0  0  0  0  0  0  0
    3.7080   18.6350   18.2720 C   0  0  0  0  0  0  0  0  0  0  0  0
    2.9270   17.5840   18.7550 C   0  0  0  0  0  0  0  0  0  0  0  0
    6.3420   13.5520   10.1450 H   0  0  0  0  0  0  0  0  0  0  0  0
    6.5570   15.9180    9.5160 H   0  0  0  0  0  0  0  0  0  0  0  0
    4.2250   12.7040   11.0170 H   0  0  0  0  0  0  0  0  0  0  0  0
    5.5210   17.9050    9.3330 H   0  0  0  0  0  0  0  0  0  0  0  0
    2.5350   16.5990   10.6900 H   0  0  0  0  0  0  0  0  0  0  0  0
    1.6320   13.1290   10.9350 H   0  0  0  0  0  0  0  0  0  0  0  0
    2.9840   13.6140   13.1680 H   0  0  0  0  0  0  0  0  0  0  0  0
    0.5710   14.2920   14.2830 H   0  0  0  0  0  0  0  0  0  0  0  0
    1.1890   16.5700   12.5460 H   0  0  0  0  0  0  0  0  0  0  0  0
    1.6650   15.9470   18.2290 H   0  0  0  0  0  0  0  0  0  0  0  0
    3.2350   18.1930   14.9630 H   0  0  0  0  0  0  0  0  0  0  0  0
    4.4120   19.6560   16.5400 H   0  0  0  0  0  0  0  0  0  0  0  0
    4.2170   19.2690   18.9500 H   0  0  0  0  0  0  0  0  0  0  0  0
    2.8420   17.4250   19.7990 H   0  0  0  0  0  0  0  0  0  0  0  0
  1  2  1  0  0  0  0
  1  4  2  0  0  0  0
  1 25  1  0  0  0  0
  2  3  2  0  0  0  0
  2 26  1  0  0  0  0
  3  6  1  0  0  0  0
  3  7  1  0  0  0  0
  4  5  1  0  0  0  0
  4 27  1  0  0  0  0
  5  7  2  0  0  0  0
  5  8  1  0  0  0  0
  6 28  1  0  0  0  0
  7 29  1  0  0  0  0
  8  9  1  0  0  0  0
  8 10  1  0  0  0  0
  8 30  1  0  0  0  0
  9 11  1  0  0  0  0
  9 31  1  0  0  0  0
 10 12  1  0  0  0  0
 11 12  1  0  0  0  0
 11 16  1  0  0  0  0
 11 32  1  0  0  0  0
 12 13  1  0  0  0  0
 12 33  1  0  0  0  0
 13 14  2  0  0  0  0
 13 15  1  0  0  0  0
 16 17  2  0  0  0  0
 16 18  1  0  0  0  0
 18 19  1  0  0  0  0
 19 20  2  0  0  0  0
 19 21  1  0  0  0  0
 20 24  1  0  0  0  0
 20 34  1  0  0  0  0
 21 22  2  0  0  0  0
 21 35  1  0  0  0  0
 22 23  1  0  0  0  0
 22 36  1  0  0  0  0
 23 24  2  0  0  0  0
 23 37  1  0  0  0  0
 24 38  1  0  0  0  0
M  CHG  1  15  -1
M  END
> <rseq>
1

> <mseq>
109

> <S>
-4.956192

> <rmsd_refine>
1.523176

> <E_conf>
-7.286093

> <E_score1>
-6.556312

> <E_refine>
-26.3349

> <E_score2>
-4.956192

>  <$File>
outputs/pdb_4j58_cleaned.pdb_2024_06_17__22_47_40_V2_BS398_MIN1_/SDF/sdf_db.sdf

> <Rec_index>
1

>  <PLIF_raw>
[[6,9],[2222,1056],[148,70],[3,3],[2.3,0.7]]

> <FP:PLIF>
3 39 40

>  <PLIF_ligidx>
[9,6,6]

$$$$
109
  MOE2022           3D

 46 47  0  0  1  0  0  0  0  0999 V2000
    7.3220   21.0400   19.3960 C   0  0  0  0  0  0  0  0  0  0  0  0
    6.4970   19.9460   19.1630 C   0  0  0  0  0  0  0  0  0  0  0  0
    5.1720   20.1520   18.7820 C   0  0  0  0  0  0  0  0  0  0  0  0
    4.4050   19.0360   18.4900 O   0  0  0  0  0  0  0  0  0  0  0  0
    3.2250   19.0370   17.6130 C   0  0  1  0  0  0  0  0  0  0  0  0
    4.6590   21.4480   18.6700 C   0  0  0  0  0  0  0  0  0  0  0  0
    6.8220   22.3330   19.2630 C   0  0  0  0  0  0  0  0  0  0  0  0
    5.4920   22.5360   18.9050 C   0  0  0  0  0  0  0  0  0  0  0  0
    3.5940   19.3410   16.1540 C   0  0  0  0  0  0  0  0  0  0  0  0
    4.4900   20.1490   15.9030 O   0  0  0  0  0  0  0  0  0  0  0  0
    2.4090   17.7390   17.7930 C   0  0  2  0  0  0  0  0  0  0  0  0
    2.8730   18.7910   15.1490 N   0  0  0  0  0  0  0  0  0  0  0  0
    1.2660   17.6640   16.7580 C   0  0  2  0  0  0  0  0  0  0  0  0
    1.9860   17.6200   15.3840 C   0  0  1  0  0  0  0  0  0  0  0  0
    1.9230   17.6500   19.1220 O   0  0  0  0  0  0  0  0  0  0  0  0
    3.1610   19.1880   13.7560 C   0  0  0  0  0  0  0  0  0  0  0  0
    0.3850   18.8600   16.8380 N   0  0  0  0  0  0  0  0  0  0  0  0
    0.4390   16.3740   16.9740 C   0  0  0  0  0  0  0  0  0  0  0  0
   -0.8260   16.4010   16.3370 O   0  0  0  0  0  0  0  0  0  0  0  0
    1.0460   17.4320   14.2740 O   0  0  0  0  0  0  0  0  0  0  0  0
    1.2940   16.3530   13.2710 C   0  0  2  0  0  0  0  0  0  0  0  0
    0.4250   15.1250   13.5800 C   0  0  0  0  0  0  0  0  0  0  0  0
    2.7640   16.0020   13.0400 C   0  0  0  0  0  0  0  0  0  0  0  0
    3.3210   16.4640   12.0190 O   0  0  0  0  0  0  0  0  0  0  0  0
    3.3340   15.2510   13.8640 O   0  5  0  0  0  0  0  0  0  0  0  0
    8.3350   20.8930   19.6650 H   0  0  0  0  0  0  0  0  0  0  0  0
    6.8780   18.9640   19.2570 H   0  0  0  0  0  0  0  0  0  0  0  0
    2.5840   19.8390   17.9480 H   0  0  0  0  0  0  0  0  0  0  0  0
    3.6500   21.6140   18.3980 H   0  0  0  0  0  0  0  0  0  0  0  0
    7.4540   23.1630   19.4330 H   0  0  0  0  0  0  0  0  0  0  0  0
    5.1160   23.5210   18.8060 H   0  0  0  0  0  0  0  0  0  0  0  0
    3.0810   16.8960   17.6280 H   0  0  0  0  0  0  0  0  0  0  0  0
    2.6130   16.7440   15.4220 H   0  0  0  0  0  0  0  0  0  0  0  0
    1.4160   18.4440   19.3100 H   0  0  0  0  0  0  0  0  0  0  0  0
    3.5080   20.2090   13.6840 H   0  0  0  0  0  0  0  0  0  0  0  0
    3.9250   18.5590   13.3250 H   0  0  0  0  0  0  0  0  0  0  0  0
    2.2900   19.1310   13.1190 H   0  0  0  0  0  0  0  0  0  0  0  0
    0.9310   19.6890   16.6530 H   0  0  0  0  0  0  0  0  0  0  0  0
   -0.3190   18.7790   16.1160 H   0  0  0  0  0  0  0  0  0  0  0  0
    1.0070   15.5340   16.5890 H   0  0  0  0  0  0  0  0  0  0  0  0
    0.2620   16.2120   18.0360 H   0  0  0  0  0  0  0  0  0  0  0  0
   -1.3220   17.1440   16.6890 H   0  0  0  0  0  0  0  0  0  0  0  0
    0.9260   16.7680   12.3420 H   0  0  0  0  0  0  0  0  0  0  0  0
    0.7450   14.6450   14.5040 H   0  0  0  0  0  0  0  0  0  0  0  0
   -0.6210   15.4150   13.6800 H   0  0  0  0  0  0  0  0  0  0  0  0
    0.5060   14.3960   12.7730 H   0  0  0  0  0  0  0  0  0  0  0  0
  1  2  1  0  0  0  0
  1  7  2  0  0  0  0
  1 26  1  0  0  0  0
  2  3  2  0  0  0  0
  2 27  1  0  0  0  0
  3  4  1  0  0  0  0
  3  6  1  0  0  0  0
  4  5  1  0  0  0  0
  5  9  1  0  0  0  0
  5 11  1  0  0  0  0
  5 28  1  0  0  0  0
  6  8  2  0  0  0  0
  6 29  1  0  0  0  0
  7  8  1  0  0  0  0
  7 30  1  0  0  0  0
  8 31  1  0  0  0  0
  9 10  2  0  0  0  0
  9 12  1  0  0  0  0
 11 13  1  0  0  0  0
 11 15  1  0  0  0  0
 11 32  1  0  0  0  0
 12 14  1  0  0  0  0
 12 16  1  0  0  0  0
 13 14  1  0  0  0  0
 13 17  1  0  0  0  0
 13 18  1  0  0  0  0
 14 20  1  0  0  0  0
 14 33  1  0  0  0  0
 15 34  1  0  0  0  0
 16 35  1  0  0  0  0
 16 36  1  0  0  0  0
 16 37  1  0  0  0  0
 17 38  1  0  0  0  0
 17 39  1  0  0  0  0
 18 19  1  0  0  0  0
 18 40  1  0  0  0  0
 18 41  1  0  0  0  0
 19 42  1  0  0  0  0
 20 21  1  0  0  0  0
 21 22  1  0  0  0  0
 21 23  1  0  0  0  0
 21 43  1  0  0  0  0
 22 44  1  0  0  0  0
 22 45  1  0  0  0  0
 22 46  1  0  0  0  0
 23 24  2  0  0  0  0
 23 25  1  0  0  0  0
M  CHG  1  25  -1
M  END
> <rseq>
1

> <mseq>
110

> <S>
-5.571868

> <rmsd_refine>
1.659756

> <E_conf>
69.49115

> <E_score1>
-9.153518

> <E_refine>
-27.79961

> <E_score2>
-5.571868

>  <$File>
outputs/pdb_4j58_cleaned.pdb_2024_06_17__22_47_40_V2_BS398_MIN1_/SDF/sdf_db.sdf

> <Rec_index>
1

>  <PLIF_raw>
[[24,25],[823,823],[54,54],[7,7],[2.76410569,0.8297679136]]

> <FP:PLIF>
1

>  <PLIF_ligidx>
[[24,25]]

$$$$
110
  MOE2022           3D

 41 42  0  0  0  0  0  0  0  0999 V2000
    8.5830   21.0170   18.4400 C   0  0  0  0  0  0  0  0  0  0  0  0
    8.3810   22.2310   17.7960 C   0  0  0  0  0  0  0  0  0  0  0  0
    7.5020   20.1900   18.7230 C   0  0  0  0  0  0  0  0  0  0  0  0
    6.2080   20.5740   18.3690 C   0  0  0  0  0  0  0  0  0  0  0  0
    6.0090   21.8080   17.7490 C   0  0  0  0  0  0  0  0  0  0  0  0
    5.0340   19.6570   18.6720 C   0  0  0  0  0  0  0  0  0  0  0  0
    4.1650   19.2490   17.4800 C   0  0  0  0  0  0  0  0  0  0  0  0
    2.9690   18.4910   17.6160 N   0  0  0  0  0  0  0  0  0  0  0  0
    7.0930   22.6320   17.4580 C   0  0  0  0  0  0  0  0  0  0  0  0
    2.6260   17.7310   18.7760 C   0  0  0  0  0  0  0  0  0  0  0  0
    2.0430   18.5190   16.4430 C   0  0  0  0  0  0  0  0  0  0  0  0
    1.2390   17.3880   19.0750 C   0  0  0  0  0  0  0  0  0  0  0  0
    4.4730   19.6270   16.3640 O   0  0  0  0  0  0  0  0  0  0  0  0
    0.8370   16.4830   20.0070 C   0  0  0  0  0  0  0  0  0  0  0  0
    3.5370   17.3740   19.5110 O   0  0  0  0  0  0  0  0  0  0  0  0
    1.6930   15.7660   20.7700 O   0  0  0  0  0  0  0  0  0  0  0  0
    2.4760   17.7240   15.2260 C   0  0  0  0  0  0  0  0  0  0  0  0
    2.8300   18.3900   14.0540 C   0  0  0  0  0  0  0  0  0  0  0  0
    2.4800   16.3300   15.2420 C   0  0  0  0  0  0  0  0  0  0  0  0
    3.1730   17.6780   12.9130 C   0  0  0  0  0  0  0  0  0  0  0  0
    3.1710   16.2780   12.9150 C   0  0  0  0  0  0  0  0  0  0  0  0
    2.8190   15.6140   14.0980 C   0  0  0  0  0  0  0  0  0  0  0  0
    3.5430   15.5340   11.7080 C   0  0  0  0  0  0  0  0  0  0  0  0
    3.0820   14.3790   11.5200 O   0  5  0  0  0  0  0  0  0  0  0  0
    4.3370   16.0620   10.8800 O   0  0  0  0  0  0  0  0  0  0  0  0
    9.5630   20.7190   18.7130 H   0  0  0  0  0  0  0  0  0  0  0  0
    9.2070   22.8490   17.5630 H   0  0  0  0  0  0  0  0  0  0  0  0
    7.6710   19.2640   19.2100 H   0  0  0  0  0  0  0  0  0  0  0  0
    5.0310   22.1190   17.4870 H   0  0  0  0  0  0  0  0  0  0  0  0
    5.4220   18.7810   19.1570 H   0  0  0  0  0  0  0  0  0  0  0  0
    4.4220   20.1330   19.4180 H   0  0  0  0  0  0  0  0  0  0  0  0
    6.9370   23.5620   16.9760 H   0  0  0  0  0  0  0  0  0  0  0  0
    1.0460   18.1940   16.6830 H   0  0  0  0  0  0  0  0  0  0  0  0
    1.8910   19.5510   16.1530 H   0  0  0  0  0  0  0  0  0  0  0  0
    0.4920   17.9050   18.5380 H   0  0  0  0  0  0  0  0  0  0  0  0
   -0.1810   16.2680   20.2090 H   0  0  0  0  0  0  0  0  0  0  0  0
    2.6220   15.9860   20.5440 H   0  0  0  0  0  0  0  0  0  0  0  0
    2.8320   19.4490   14.0270 H   0  0  0  0  0  0  0  0  0  0  0  0
    2.2120   15.8110   16.1260 H   0  0  0  0  0  0  0  0  0  0  0  0
    3.4370   18.2040   12.0310 H   0  0  0  0  0  0  0  0  0  0  0  0
    2.8090   14.5540   14.1220 H   0  0  0  0  0  0  0  0  0  0  0  0
  1  2  1  0  0  0  0
  1  3  2  0  0  0  0
  1 26  1  0  0  0  0
  2  9  2  0  0  0  0
  2 27  1  0  0  0  0
  3  4  1  0  0  0  0
  3 28  1  0  0  0  0
  4  5  2  0  0  0  0
  4  6  1  0  0  0  0
  5  9  1  0  0  0  0
  5 29  1  0  0  0  0
  6  7  1  0  0  0  0
  6 30  1  0  0  0  0
  6 31  1  0  0  0  0
  7  8  1  0  0  0  0
  7 13  2  0  0  0  0
  8 10  1  0  0  0  0
  8 11  1  0  0  0  0
  9 32  1  0  0  0  0
 10 12  1  0  0  0  0
 10 15  2  0  0  0  0
 11 17  1  0  0  0  0
 11 33  1  0  0  0  0
 11 34  1  0  0  0  0
 12 14  2  0  0  0  0
 12 35  1  0  0  0  0
 14 16  1  0  0  0  0
 14 36  1  0  0  0  0
 16 37  1  0  0  0  0
 17 18  2  0  0  0  0
 17 19  1  0  0  0  0
 18 20  1  0  0  0  0
 18 38  1  0  0  0  0
 19 22  2  0  0  0  0
 19 39  1  0  0  0  0
 20 21  2  0  0  0  0
 20 40  1  0  0  0  0
 21 22  1  0  0  0  0
 21 23  1  0  0  0  0
 22 41  1  0  0  0  0
 23 24  1  0  0  0  0
 23 25  2  0  0  0  0
M  CHG  1  24  -1
M  END
> <rseq>
1

> <mseq>
111

> <S>
-6.15581

> <rmsd_refine>
0.814774

> <E_conf>
-106.0638

> <E_score1>
-9.610218

> <E_refine>
-33.3135

> <E_score2>
-6.15581

>  <$File>
outputs/pdb_4j58_cleaned.pdb_2024_06_17__22_47_40_V2_BS398_MIN1_/SDF/sdf_db.sdf

> <Rec_index>
1

>  <PLIF_raw>
[[25,25],[823,823],[54,54],[2,7],[1,4.220621689]]

> <FP:PLIF>
6 1 16

>  <PLIF_ligidx>
[25,25,25]

$$$$
111
  MOE2022           3D

 46 48  0  0  0  0  0  0  0  0999 V2000
    6.1190   14.7290    9.8380 C   0  0  0  0  0  0  0  0  0  0  0  0
    5.8290   15.6430    8.8290 C   0  0  0  0  0  0  0  0  0  0  0  0
    4.5150   16.0370    8.6050 C   0  0  0  0  0  0  0  0  0  0  0  0
    3.4920   15.5210    9.3920 C   0  0  0  0  0  0  0  0  0  0  0  0
    5.0940   14.2130   10.6260 C   0  0  0  0  0  0  0  0  0  0  0  0
    3.7750   14.6090   10.4080 C   0  0  0  0  0  0  0  0  0  0  0  0
    2.6510   14.1040   11.2890 C   0  0  0  0  0  0  0  0  0  0  0  0
    2.2130   15.1740   12.2600 C   0  0  0  0  0  0  0  0  0  0  0  0
    1.4180   16.0420   11.9510 O   0  0  0  0  0  0  0  0  0  0  0  0
    2.8060   15.1680   13.5070 N   0  0  0  0  0  0  0  0  0  0  0  0
    2.8110   16.2570   14.3830 C   0  0  0  0  0  0  0  0  0  0  0  0
    2.8000   17.5840   14.0180 C   0  0  0  0  0  0  0  0  0  0  0  0
    2.8160   18.5780   15.0220 C   0  0  0  0  0  0  0  0  0  0  0  0
    2.8310   18.2270   16.3450 C   0  0  0  0  0  0  0  0  0  0  0  0
    2.8540   19.2910   17.4220 C   0  0  0  0  0  0  0  0  0  0  0  0
    2.8520   15.8950   15.7110 N   0  0  0  0  0  0  0  0  0  0  0  0
    2.8440   16.8400   16.7200 C   0  0  0  0  0  0  0  0  0  0  0  0
    4.2560   19.6430   17.8630 C   0  0  0  0  0  0  0  0  0  0  0  0
    4.9370   20.4920   17.2310 N   0  0  0  0  0  0  0  0  0  0  0  0
    2.8550   16.4060   17.8820 O   0  0  0  0  0  0  0  0  0  0  0  0
    6.2600   20.8610   17.6030 C   0  0  0  0  0  0  0  0  0  0  0  0
    6.9860   21.7240   16.8880 C   0  0  0  0  0  0  0  0  0  0  0  0
    7.0080   20.3660   18.8160 C   0  0  0  0  0  0  0  0  0  0  0  0
    8.3450   21.9650   17.4770 C   0  0  0  0  0  0  0  0  0  0  0  0
    8.3590   21.1150   18.7650 C   0  0  0  0  0  0  0  0  0  0  0  0
    7.1180   14.4230   10.0090 H   0  0  0  0  0  0  0  0  0  0  0  0
    6.6020   16.0410    8.2280 H   0  0  0  0  0  0  0  0  0  0  0  0
    4.2940   16.7320    7.8360 H   0  0  0  0  0  0  0  0  0  0  0  0
    2.4930   15.8330    9.2210 H   0  0  0  0  0  0  0  0  0  0  0  0
    5.3240   13.5230   11.3960 H   0  0  0  0  0  0  0  0  0  0  0  0
    1.8120   13.8120   10.6720 H   0  0  0  0  0  0  0  0  0  0  0  0
    2.9510   13.2100   11.8160 H   0  0  0  0  0  0  0  0  0  0  0  0
    3.3000   14.3080   13.7960 H   0  0  0  0  0  0  0  0  0  0  0  0
    2.7940   17.8730   13.0000 H   0  0  0  0  0  0  0  0  0  0  0  0
    2.8150   19.6000   14.7390 H   0  0  0  0  0  0  0  0  0  0  0  0
    2.3510   20.1790   17.0640 H   0  0  0  0  0  0  0  0  0  0  0  0
    2.2720   18.9600   18.2700 H   0  0  0  0  0  0  0  0  0  0  0  0
    2.8290   14.8980   15.9770 H   0  0  0  0  0  0  0  0  0  0  0  0
    4.6440   19.1390   18.7100 H   0  0  0  0  0  0  0  0  0  0  0  0
    6.6510   22.1960   16.0010 H   0  0  0  0  0  0  0  0  0  0  0  0
    6.4700   20.5920   19.7260 H   0  0  0  0  0  0  0  0  0  0  0  0
    7.1580   19.2970   18.7680 H   0  0  0  0  0  0  0  0  0  0  0  0
    9.1140   21.6510   16.7870 H   0  0  0  0  0  0  0  0  0  0  0  0
    8.4920   23.0140   17.6940 H   0  0  0  0  0  0  0  0  0  0  0  0
    8.4510   21.7670   19.6340 H   0  0  0  0  0  0  0  0  0  0  0  0
    9.1870   20.4060   18.7470 H   0  0  0  0  0  0  0  0  0  0  0  0
  1  2  1  0  0  0  0
  1  5  2  0  0  0  0
  1 26  1  0  0  0  0
  2  3  2  0  0  0  0
  2 27  1  0  0  0  0
  3  4  1  0  0  0  0
  3 28  1  0  0  0  0
  4  6  2  0  0  0  0
  4 29  1  0  0  0  0
  5  6  1  0  0  0  0
  5 30  1  0  0  0  0
  6  7  1  0  0  0  0
  7  8  1  0  0  0  0
  7 31  1  0  0  0  0
  7 32  1  0  0  0  0
  8  9  2  0  0  0  0
  8 10  1  0  0  0  0
 10 11  1  0  0  0  0
 10 33  1  0  0  0  0
 11 12  2  0  0  0  0
 11 16  1  0  0  0  0
 12 13  1  0  0  0  0
 12 34  1  0  0  0  0
 13 14  2  0  0  0  0
 13 35  1  0  0  0  0
 14 15  1  0  0  0  0
 14 17  1  0  0  0  0
 15 18  1  0  0  0  0
 15 36  1  0  0  0  0
 15 37  1  0  0  0  0
 16 17  1  0  0  0  0
 16 38  1  0  0  0  0
 17 20  2  0  0  0  0
 18 19  2  0  0  0  0
 18 39  1  0  0  0  0
 19 21  1  0  0  0  0
 21 22  2  0  0  0  0
 21 23  1  0  0  0  0
 22 24  1  0  0  0  0
 22 40  1  0  0  0  0
 23 25  1  0  0  0  0
 23 41  1  0  0  0  0
 23 42  1  0  0  0  0
 24 25  1  0  0  0  0
 24 43  1  0  0  0  0
 24 44  1  0  0  0  0
 25 45  1  0  0  0  0
 25 46  1  0  0  0  0
M  END
> <rseq>
1

> <mseq>
112

> <S>
-6.217125

> <rmsd_refine>
1.185684

> <E_conf>
-92.11419

> <E_score1>
-9.009458

> <E_refine>
-32.23448

> <E_score2>
-6.217125

>  <$File>
outputs/pdb_4j58_cleaned.pdb_2024_06_17__22_47_40_V2_BS398_MIN1_/SDF/sdf_db.sdf

> <Rec_index>
1

>  <PLIF_raw>
[[10,16,20,1,5,6,4,3,2,11,12,13,14,17,16],[1056,1071,954,823,823,823,823,823,823,954,954,954,954,954,954],[70,71,62,54,54,54,54,54,54,62,62,62,62,62,62],[3,3,2,10,10,10,10,10,10,10,10,10,10,10,10],[0.8,1.7,0.5,1.1,1.1,1.1,1.1,1.1,1.1,0.5,0.5,0.5,0.5,0.5,0.5]]

> <FP:PLIF>
2 5 20 21 3 7 14

>  <PLIF_ligidx>
[[1,5,6,4,3,2],[1,5,6,4,3,2],20,[11,12,13,14,17,16],10,16,16]

$$$$
112
  MOE2022           3D

 47 50  0  0  1  0  0  0  0  0999 V2000
    8.4510   20.6040   18.6410 C   0  0  0  0  0  0  0  0  0  0  0  0
    8.6170   21.8870   18.1310 C   0  0  0  0  0  0  0  0  0  0  0  0
    7.1760   20.0630   18.7640 C   0  0  0  0  0  0  0  0  0  0  0  0
    6.0600   20.7990   18.3700 C   0  0  0  0  0  0  0  0  0  0  0  0
    6.2340   22.0820   17.8510 C   0  0  0  0  0  0  0  0  0  0  0  0
    7.5090   22.6250   17.7330 C   0  0  0  0  0  0  0  0  0  0  0  0
    4.6670   20.2180   18.5140 C   0  0  0  0  0  0  0  0  0  0  0  0
    4.0810   19.5830   17.2650 C   0  0  0  0  0  0  0  0  0  0  0  0
    4.1920   20.2330   16.1040 N   0  0  0  0  0  0  0  0  0  0  0  0
    3.6330   19.7310   15.0040 C   0  0  0  0  0  0  0  0  0  0  0  0
    2.9170   18.5360   15.0140 C   0  0  0  0  0  0  0  0  0  0  0  0
    3.3940   18.3720   17.3450 C   0  0  0  0  0  0  0  0  0  0  0  0
    2.2650   18.0490   13.7370 C   0  0  1  0  0  0  0  0  0  0  0  0
    3.0590   17.0150   13.0620 N   0  0  0  0  0  0  0  0  0  0  0  0
    2.8090   17.8340   16.2080 C   0  0  0  0  0  0  0  0  0  0  0  0
    0.9130   17.5930   13.9910 O   0  0  0  0  0  0  0  0  0  0  0  0
    0.0110   17.5860   12.8610 C   0  0  0  0  0  0  0  0  0  0  0  0
    2.8520   15.5680   13.3140 C   0  0  0  0  0  0  0  0  0  0  0  0
    3.4190   17.1630   11.7150 C   0  0  0  0  0  0  0  0  0  0  0  0
    3.6500   18.3590   11.0280 C   0  0  0  0  0  0  0  0  0  0  0  0
    4.0420   18.2970    9.6940 C   0  0  0  0  0  0  0  0  0  0  0  0
    3.5610   15.9400   11.0820 C   0  0  0  0  0  0  0  0  0  0  0  0
    4.1990   17.0630    9.0570 C   0  0  0  0  0  0  0  0  0  0  0  0
    3.9550   15.8780    9.7530 C   0  0  0  0  0  0  0  0  0  0  0  0
    3.2320   14.8220   12.0230 C   0  0  0  0  0  0  0  0  0  0  0  0
    9.2960   20.0400   18.9350 H   0  0  0  0  0  0  0  0  0  0  0  0
    9.5870   22.3000   18.0460 H   0  0  0  0  0  0  0  0  0  0  0  0
    7.0570   19.0900   19.1620 H   0  0  0  0  0  0  0  0  0  0  0  0
    5.3920   22.6480   17.5440 H   0  0  0  0  0  0  0  0  0  0  0  0
    7.6350   23.6000   17.3400 H   0  0  0  0  0  0  0  0  0  0  0  0
    4.6620   19.5020   19.3240 H   0  0  0  0  0  0  0  0  0  0  0  0
    3.9990   21.0050   18.8350 H   0  0  0  0  0  0  0  0  0  0  0  0
    3.7390   20.2800   14.1040 H   0  0  0  0  0  0  0  0  0  0  0  0
    3.3030   17.8670   18.2720 H   0  0  0  0  0  0  0  0  0  0  0  0
    2.1660   18.9030   13.0830 H   0  0  0  0  0  0  0  0  0  0  0  0
    2.2800   16.9160   16.2550 H   0  0  0  0  0  0  0  0  0  0  0  0
   -0.9670   17.2230   13.1760 H   0  0  0  0  0  0  0  0  0  0  0  0
   -0.0980   18.5950   12.4630 H   0  0  0  0  0  0  0  0  0  0  0  0
    0.3930   16.9310   12.0770 H   0  0  0  0  0  0  0  0  0  0  0  0
    3.4590   15.2400   14.1460 H   0  0  0  0  0  0  0  0  0  0  0  0
    1.8240   15.3540   13.5700 H   0  0  0  0  0  0  0  0  0  0  0  0
    3.5440   19.2940   11.5120 H   0  0  0  0  0  0  0  0  0  0  0  0
    4.2260   19.1910    9.1560 H   0  0  0  0  0  0  0  0  0  0  0  0
    4.5010   17.0270    8.0420 H   0  0  0  0  0  0  0  0  0  0  0  0
    4.0670   14.9420    9.2700 H   0  0  0  0  0  0  0  0  0  0  0  0
    4.1080   14.1950   12.1740 H   0  0  0  0  0  0  0  0  0  0  0  0
    2.3900   14.2370   11.6520 H   0  0  0  0  0  0  0  0  0  0  0  0
  1  2  2  0  0  0  0
  1  3  1  0  0  0  0
  1 26  1  0  0  0  0
  2  6  1  0  0  0  0
  2 27  1  0  0  0  0
  3  4  2  0  0  0  0
  3 28  1  0  0  0  0
  4  5  1  0  0  0  0
  4  7  1  0  0  0  0
  5  6  2  0  0  0  0
  5 29  1  0  0  0  0
  6 30  1  0  0  0  0
  7  8  1  0  0  0  0
  7 31  1  0  0  0  0
  7 32  1  0  0  0  0
  8  9  2  0  0  0  0
  8 12  1  0  0  0  0
  9 10  1  0  0  0  0
 10 11  2  0  0  0  0
 10 33  1  0  0  0  0
 11 13  1  0  0  0  0
 11 15  1  0  0  0  0
 12 15  2  0  0  0  0
 12 34  1  0  0  0  0
 13 14  1  0  0  0  0
 13 16  1  0  0  0  0
 13 35  1  0  0  0  0
 14 18  1  0  0  0  0
 14 19  1  0  0  0  0
 15 36  1  0  0  0  0
 16 17  1  0  0  0  0
 17 37  1  0  0  0  0
 17 38  1  0  0  0  0
 17 39  1  0  0  0  0
 18 25  1  0  0  0  0
 18 40  1  0  0  0  0
 18 41  1  0  0  0  0
 19 20  1  0  0  0  0
 19 22  2  0  0  0  0
 20 21  2  0  0  0  0
 20 42  1  0  0  0  0
 21 23  1  0  0  0  0
 21 43  1  0  0  0  0
 22 24  1  0  0  0  0
 22 25  1  0  0  0  0
 23 24  2  0  0  0  0
 23 44  1  0  0  0  0
 24 45  1  0  0  0  0
 25 46  1  0  0  0  0
 25 47  1  0  0  0  0
M  END
> <rseq>
1

> <mseq>
113

> <S>
-5.488091

> <rmsd_refine>
1.108471

> <E_conf>
0.2138456

> <E_score1>
-7.627555

> <E_refine>
-25.13447

> <E_score2>
-5.488091

>  <$File>
outputs/pdb_4j58_cleaned.pdb_2024_06_17__22_47_40_V2_BS398_MIN1_/SDF/sdf_db.sdf

> <Rec_index>
1

>  <PLIF_raw>
[[],[],[],[],[]]

>  <PLIF_ligidx>
[]

$$$$
113
  MOE2022           3D

 47 48  0  0  0  0  0  0  0  0999 V2000
    6.0770   14.7390    9.8370 C   0  0  0  0  0  0  0  0  0  0  0  0
    5.8200   15.6670    8.8330 C   0  0  0  0  0  0  0  0  0  0  0  0
    4.5480   16.2080    8.6960 C   0  0  0  0  0  0  0  0  0  0  0  0
    3.5330   15.8250    9.5650 C   0  0  0  0  0  0  0  0  0  0  0  0
    5.0600   14.3560   10.7070 C   0  0  0  0  0  0  0  0  0  0  0  0
    3.7830   14.9000   10.5780 C   0  0  0  0  0  0  0  0  0  0  0  0
    2.6760   14.5380   11.5480 C   0  0  0  0  0  0  0  0  0  0  0  0
    2.4200   15.6640   12.5220 C   0  0  0  0  0  0  0  0  0  0  0  0
    1.8850   16.7030   12.1830 O   0  0  0  0  0  0  0  0  0  0  0  0
    2.8560   15.4900   13.8190 N   0  0  0  0  0  0  0  0  0  0  0  0
    3.0330   16.5280   14.7370 C   0  0  0  0  0  0  0  0  0  0  0  0
    3.3890   17.8220   14.4310 C   0  0  0  0  0  0  0  0  0  0  0  0
    3.5910   18.7520   15.4750 C   0  0  0  0  0  0  0  0  0  0  0  0
    3.4150   18.3770   16.7810 C   0  0  0  0  0  0  0  0  0  0  0  0
    3.6100   19.3640   17.9180 C   0  0  0  0  0  0  0  0  0  0  0  0
    2.8500   16.1410   16.0440 N   0  0  0  0  0  0  0  0  0  0  0  0
    2.9880   17.0360   17.0880 C   0  0  0  0  0  0  0  0  0  0  0  0
    2.7420   16.5930   18.2200 O   0  0  0  0  0  0  0  0  0  0  0  0
    4.7110   20.3880   17.7360 C   0  0  0  0  0  0  0  0  0  0  0  0
    4.5010   21.5170   17.2960 O   0  0  0  0  0  0  0  0  0  0  0  0
    5.9530   20.0160   18.1180 O   0  0  0  0  0  0  0  0  0  0  0  0
    7.1650   20.8380   18.2310 C   0  0  0  0  0  0  0  0  0  0  0  0
    7.5740   21.4380   16.8750 C   0  0  0  0  0  0  0  0  0  0  0  0
    6.9530   21.9320   19.2890 C   0  0  0  0  0  0  0  0  0  0  0  0
    8.2990   19.9270   18.7140 C   0  0  0  0  0  0  0  0  0  0  0  0
    7.0450   14.3220    9.9420 H   0  0  0  0  0  0  0  0  0  0  0  0
    6.5870   15.9640    8.1680 H   0  0  0  0  0  0  0  0  0  0  0  0
    4.3520   16.9150    7.9310 H   0  0  0  0  0  0  0  0  0  0  0  0
    2.5660   16.2480    9.4590 H   0  0  0  0  0  0  0  0  0  0  0  0
    5.2650   13.6510   11.4720 H   0  0  0  0  0  0  0  0  0  0  0  0
    1.7680   14.3280   10.9980 H   0  0  0  0  0  0  0  0  0  0  0  0
    2.9150   13.6240   12.0730 H   0  0  0  0  0  0  0  0  0  0  0  0
    3.0920   14.5310   14.1190 H   0  0  0  0  0  0  0  0  0  0  0  0
    3.5360   18.1280   13.4280 H   0  0  0  0  0  0  0  0  0  0  0  0
    3.8750   19.7430   15.2310 H   0  0  0  0  0  0  0  0  0  0  0  0
    2.6720   19.8820   18.0590 H   0  0  0  0  0  0  0  0  0  0  0  0
    3.8080   18.8220   18.8330 H   0  0  0  0  0  0  0  0  0  0  0  0
    2.5550   15.1750   16.2640 H   0  0  0  0  0  0  0  0  0  0  0  0
    8.5170   21.9760   16.9760 H   0  0  0  0  0  0  0  0  0  0  0  0
    7.7050   20.6420   16.1450 H   0  0  0  0  0  0  0  0  0  0  0  0
    6.8190   22.1360   16.5150 H   0  0  0  0  0  0  0  0  0  0  0  0
    6.1590   22.6120   18.9830 H   0  0  0  0  0  0  0  0  0  0  0  0
    6.6870   21.4690   20.2380 H   0  0  0  0  0  0  0  0  0  0  0  0
    7.8700   22.5040   19.4190 H   0  0  0  0  0  0  0  0  0  0  0  0
    8.0010   19.4230   19.6330 H   0  0  0  0  0  0  0  0  0  0  0  0
    8.5180   19.1790   17.9560 H   0  0  0  0  0  0  0  0  0  0  0  0
    9.2020   20.5110   18.8980 H   0  0  0  0  0  0  0  0  0  0  0  0
  1  2  1  0  0  0  0
  1  5  2  0  0  0  0
  1 26  1  0  0  0  0
  2  3  2  0  0  0  0
  2 27  1  0  0  0  0
  3  4  1  0  0  0  0
  3 28  1  0  0  0  0
  4  6  2  0  0  0  0
  4 29  1  0  0  0  0
  5  6  1  0  0  0  0
  5 30  1  0  0  0  0
  6  7  1  0  0  0  0
  7  8  1  0  0  0  0
  7 31  1  0  0  0  0
  7 32  1  0  0  0  0
  8  9  2  0  0  0  0
  8 10  1  0  0  0  0
 10 11  1  0  0  0  0
 10 33  1  0  0  0  0
 11 12  2  0  0  0  0
 11 16  1  0  0  0  0
 12 13  1  0  0  0  0
 12 34  1  0  0  0  0
 13 14  2  0  0  0  0
 13 35  1  0  0  0  0
 14 15  1  0  0  0  0
 14 17  1  0  0  0  0
 15 19  1  0  0  0  0
 15 36  1  0  0  0  0
 15 37  1  0  0  0  0
 16 17  1  0  0  0  0
 16 38  1  0  0  0  0
 17 18  2  0  0  0  0
 19 20  2  0  0  0  0
 19 21  1  0  0  0  0
 21 22  1  0  0  0  0
 22 23  1  0  0  0  0
 22 24  1  0  0  0  0
 22 25  1  0  0  0  0
 23 39  1  0  0  0  0
 23 40  1  0  0  0  0
 23 41  1  0  0  0  0
 24 42  1  0  0  0  0
 24 43  1  0  0  0  0
 24 44  1  0  0  0  0
 25 45  1  0  0  0  0
 25 46  1  0  0  0  0
 25 47  1  0  0  0  0
M  END
> <rseq>
1

> <mseq>
114

> <S>
-6.450679

> <rmsd_refine>
0.7479147

> <E_conf>
-137.3356

> <E_score1>
-9.691673

> <E_refine>
-33.71765

> <E_score2>
-6.450679

>  <$File>
outputs/pdb_4j58_cleaned.pdb_2024_06_17__22_47_40_V2_BS398_MIN1_/SDF/sdf_db.sdf

> <Rec_index>
1

>  <PLIF_raw>
[[16,1,5,6,4,3,2,11,12,13,14,17,16],[1071,823,823,823,823,823,823,954,954,954,954,954,954],[71,54,54,54,54,54,54,62,62,62,62,62,62],[3,10,10,10,10,10,10,10,10,10,10,10,10],[2.3,1.1,1.1,1.1,1.1,1.1,1.1,1.1,1.1,1.1,1.1,1.1,1.1]]

> <FP:PLIF>
2 5 21 30 7 14

>  <PLIF_ligidx>
[[1,5,6,4,3,2],[1,5,6,4,3,2],[11,12,13,14,17,16],[11,12,13,14,17,16],16,16]

$$$$
114
  MOE2022           3D

 43 44  0  0  1  0  0  0  0  0999 V2000
    1.9320   14.9500   21.8950 O   0  0  0  0  0  0  0  0  0  0  0  0
    1.2500   15.7710   21.2440 C   0  0  0  0  0  0  0  0  0  0  0  0
    0.2900   16.4110   21.7260 O   0  5  0  0  0  0  0  0  0  0  0  0
    1.5890   15.9440   19.7730 C   0  0  1  0  0  0  0  0  0  0  0  0
    0.3920   16.0970   18.8370 C   0  0  0  0  0  0  0  0  0  0  0  0
    2.4280   17.0840   19.4360 N   0  0  0  0  0  0  0  0  0  0  0  0
    0.8020   17.1220   17.8920 N   0  0  0  0  0  0  0  0  0  0  0  0
    1.9400   17.7460   18.3460 C   0  0  0  0  0  0  0  0  0  0  0  0
   -0.1270   17.7500   16.9540 C   0  0  0  0  0  0  0  0  0  0  0  0
    2.4530   18.7500   17.8520 O   0  0  0  0  0  0  0  0  0  0  0  0
    0.3190   17.6700   15.4830 C   0  0  0  0  0  0  0  0  0  0  0  0
    0.7110   16.2570   15.0090 C   0  0  1  0  0  0  0  0  0  0  0  0
   -0.1850   15.1720   15.5080 N   0  3  0  0  0  0  0  0  0  0  0  0
    0.9540   16.2190   13.4980 C   0  0  0  0  0  0  0  0  0  0  0  0
    2.2450   16.4850   13.0310 C   0  0  0  0  0  0  0  0  0  0  0  0
   -0.0600   15.9280   12.5510 C   0  0  0  0  0  0  0  0  0  0  0  0
   -1.4490   15.6470   12.9160 C   0  0  0  0  0  0  0  0  0  0  0  0
    3.2460   16.8010   13.9130 O   0  0  0  0  0  0  0  0  0  0  0  0
    2.5540   16.4400   11.6690 C   0  0  0  0  0  0  0  0  0  0  0  0
    0.2690   15.8890   11.1860 C   0  0  0  0  0  0  0  0  0  0  0  0
   -2.0000   14.6140   12.4630 O   0  0  0  0  0  0  0  0  0  0  0  0
    3.8590   16.6940   11.2740 O   0  0  0  0  0  0  0  0  0  0  0  0
    1.5600   16.1400   10.7420 C   0  0  0  0  0  0  0  0  0  0  0  0
    4.3320   16.6110    9.9090 C   0  0  0  0  0  0  0  0  0  0  0  0
   -2.0610   16.4090   13.7090 O   0  5  0  0  0  0  0  0  0  0  0  0
    2.1320   15.0720   19.4530 H   0  0  0  0  0  0  0  0  0  0  0  0
    0.1550   15.1630   18.3500 H   0  0  0  0  0  0  0  0  0  0  0  0
   -0.4910   16.4180   19.3720 H   0  0  0  0  0  0  0  0  0  0  0  0
    3.0310   17.5630   20.1200 H   0  0  0  0  0  0  0  0  0  0  0  0
   -1.1020   17.2910   17.0540 H   0  0  0  0  0  0  0  0  0  0  0  0
   -0.2750   18.7860   17.2300 H   0  0  0  0  0  0  0  0  0  0  0  0
   -0.4880   18.0560   14.8620 H   0  0  0  0  0  0  0  0  0  0  0  0
    1.1810   18.3240   15.3430 H   0  0  0  0  0  0  0  0  0  0  0  0
    1.6790   16.0840   15.4600 H   0  0  0  0  0  0  0  0  0  0  0  0
   -1.1260   15.3180   15.1590 H   0  0  0  0  0  0  0  0  0  0  0  0
    0.1290   14.2690   15.1870 H   0  0  0  0  0  0  0  0  0  0  0  0
   -0.2140   15.1700   16.5160 H   0  0  0  0  0  0  0  0  0  0  0  0
    4.0620   16.9910   13.4090 H   0  0  0  0  0  0  0  0  0  0  0  0
   -0.4870   15.6650   10.4760 H   0  0  0  0  0  0  0  0  0  0  0  0
    1.7710   16.1010    9.7060 H   0  0  0  0  0  0  0  0  0  0  0  0
    5.4040   16.8010    9.8740 H   0  0  0  0  0  0  0  0  0  0  0  0
    4.1460   15.6160    9.5040 H   0  0  0  0  0  0  0  0  0  0  0  0
    3.8270   17.3510    9.2880 H   0  0  0  0  0  0  0  0  0  0  0  0
  1  2  2  0  0  0  0
  2  3  1  0  0  0  0
  2  4  1  0  0  0  0
  4  5  1  0  0  0  0
  4  6  1  0  0  0  0
  4 26  1  0  0  0  0
  5  7  1  0  0  0  0
  5 27  1  0  0  0  0
  5 28  1  0  0  0  0
  6  8  1  0  0  0  0
  6 29  1  0  0  0  0
  7  8  1  0  0  0  0
  7  9  1  0  0  0  0
  8 10  2  0  0  0  0
  9 11  1  0  0  0  0
  9 30  1  0  0  0  0
  9 31  1  0  0  0  0
 11 12  1  0  0  0  0
 11 32  1  0  0  0  0
 11 33  1  0  0  0  0
 12 13  1  0  0  0  0
 12 14  1  0  0  0  0
 12 34  1  0  0  0  0
 13 35  1  0  0  0  0
 13 36  1  0  0  0  0
 13 37  1  0  0  0  0
 14 15  2  0  0  0  0
 14 16  1  0  0  0  0
 15 18  1  0  0  0  0
 15 19  1  0  0  0  0
 16 17  1  0  0  0  0
 16 20  2  0  0  0  0
 17 21  2  0  0  0  0
 17 25  1  0  0  0  0
 18 38  1  0  0  0  0
 19 22  1  0  0  0  0
 19 23  2  0  0  0  0
 20 23  1  0  0  0  0
 20 39  1  0  0  0  0
 22 24  1  0  0  0  0
 23 40  1  0  0  0  0
 24 41  1  0  0  0  0
 24 42  1  0  0  0  0
 24 43  1  0  0  0  0
M  CHG  1   3  -1
M  CHG  1  13   1
M  CHG  1  25  -1
M  END
> <rseq>
1

> <mseq>
115

> <S>
-5.209853

> <rmsd_refine>
2.362196

> <E_conf>
-248.8262

> <E_score1>
-7.299481

> <E_refine>
-24.47916

> <E_score2>
-5.209853

>  <$File>
outputs/pdb_4j58_cleaned.pdb_2024_06_17__22_47_40_V2_BS398_MIN1_/SDF/sdf_db.sdf

> <Rec_index>
1

>  <PLIF_raw>
[[3,1,1,3,3],[1206,1206,1212,1206,1212],[81,81,81,81,81],[2,7,7,7,7],[4.4,3.868231403,4.039683387,3.766794822,0.8369705561]]

> <FP:PLIF>
17 18 24 25

>  <PLIF_ligidx>
[3,3,[1,1,3,3],[1,1,3]]

$$$$
115
  MOE2022           3D

 40 42  0  0  0  0  0  0  0  0999 V2000
    6.1680   20.7800   18.7540 C   0  0  0  0  0  0  0  0  0  0  0  0
    5.3630   19.6480   18.7030 C   0  0  0  0  0  0  0  0  0  0  0  0
    4.1340   19.6640   18.0320 C   0  0  0  0  0  0  0  0  0  0  0  0
    3.2660   18.4790   17.9860 C   0  0  0  0  0  0  0  0  0  0  0  0
    2.5960   18.1380   16.8050 C   0  0  0  0  0  0  0  0  0  0  0  0
    3.0550   17.6910   19.1240 C   0  0  0  0  0  0  0  0  0  0  0  0
    2.1250   16.6430   19.1300 C   0  0  0  0  0  0  0  0  0  0  0  0
    1.6950   17.0760   16.7750 C   0  0  0  0  0  0  0  0  0  0  0  0
    1.8540   15.8720   20.3530 C   0  0  0  0  0  0  0  0  0  0  0  0
    1.4450   16.3570   17.9400 C   0  0  0  0  0  0  0  0  0  0  0  0
    0.9470   16.7110   15.5070 C   0  0  0  0  0  0  0  0  0  0  0  0
    3.7330   20.8590   17.4170 C   0  0  0  0  0  0  0  0  0  0  0  0
    1.7340   16.8440   14.2780 N   0  0  0  0  0  0  0  0  0  0  0  0
    2.3150   15.7960   13.6000 C   0  0  0  0  0  0  0  0  0  0  0  0
    2.1920   14.6580   14.0500 O   0  0  0  0  0  0  0  0  0  0  0  0
    3.0500   16.0880   12.3630 C   0  0  0  0  0  0  0  0  0  0  0  0
    0.8590   15.0940   20.4100 O   0  0  0  0  0  0  0  0  0  0  0  0
    3.6360   15.0530   11.6200 C   0  0  0  0  0  0  0  0  0  0  0  0
    5.7570   21.9550   18.1360 C   0  0  0  0  0  0  0  0  0  0  0  0
    4.5370   21.9920   17.4680 C   0  0  0  0  0  0  0  0  0  0  0  0
    3.1550   17.3680   11.9410 N   0  0  0  0  0  0  0  0  0  0  0  0
    2.6140   15.9910   21.3500 O   0  5  0  0  0  0  0  0  0  0  0  0
    3.8080   17.6530   10.8170 C   0  0  0  0  0  0  0  0  0  0  0  0
    4.3290   15.3400   10.4540 C   0  0  0  0  0  0  0  0  0  0  0  0
    4.4130   16.6630   10.0480 C   0  0  0  0  0  0  0  0  0  0  0  0
    7.0970   20.7470   19.2630 H   0  0  0  0  0  0  0  0  0  0  0  0
    5.6910   18.7660   19.1780 H   0  0  0  0  0  0  0  0  0  0  0  0
    2.7690   18.7050   15.9270 H   0  0  0  0  0  0  0  0  0  0  0  0
    3.5860   17.9120   20.0110 H   0  0  0  0  0  0  0  0  0  0  0  0
    0.7270   15.5780   17.9260 H   0  0  0  0  0  0  0  0  0  0  0  0
    0.5580   15.7050   15.5910 H   0  0  0  0  0  0  0  0  0  0  0  0
    0.0700   17.3390   15.4280 H   0  0  0  0  0  0  0  0  0  0  0  0
    2.8010   20.9060   16.9160 H   0  0  0  0  0  0  0  0  0  0  0  0
    1.8720   17.7960   13.9070 H   0  0  0  0  0  0  0  0  0  0  0  0
    3.5530   14.0480   11.9460 H   0  0  0  0  0  0  0  0  0  0  0  0
    6.3700   22.8190   18.1730 H   0  0  0  0  0  0  0  0  0  0  0  0
    4.2180   22.8880   17.0000 H   0  0  0  0  0  0  0  0  0  0  0  0
    3.8620   18.6680   10.5160 H   0  0  0  0  0  0  0  0  0  0  0  0
    4.7790   14.5670    9.8860 H   0  0  0  0  0  0  0  0  0  0  0  0
    4.9290   16.9190    9.1580 H   0  0  0  0  0  0  0  0  0  0  0  0
  1  2  1  0  0  0  0
  1 19  2  0  0  0  0
  1 26  1  0  0  0  0
  2  3  2  0  0  0  0
  2 27  1  0  0  0  0
  3  4  1  0  0  0  0
  3 12  1  0  0  0  0
  4  5  1  0  0  0  0
  4  6  2  0  0  0  0
  5  8  2  0  0  0  0
  5 28  1  0  0  0  0
  6  7  1  0  0  0  0
  6 29  1  0  0  0  0
  7  9  1  0  0  0  0
  7 10  2  0  0  0  0
  8 10  1  0  0  0  0
  8 11  1  0  0  0  0
  9 17  2  0  0  0  0
  9 22  1  0  0  0  0
 10 30  1  0  0  0  0
 11 13  1  0  0  0  0
 11 31  1  0  0  0  0
 11 32  1  0  0  0  0
 12 20  2  0  0  0  0
 12 33  1  0  0  0  0
 13 14  1  0  0  0  0
 13 34  1  0  0  0  0
 14 15  2  0  0  0  0
 14 16  1  0  0  0  0
 16 18  1  0  0  0  0
 16 21  2  0  0  0  0
 18 24  2  0  0  0  0
 18 35  1  0  0  0  0
 19 20  1  0  0  0  0
 19 36  1  0  0  0  0
 20 37  1  0  0  0  0
 21 23  1  0  0  0  0
 23 25  2  0  0  0  0
 23 38  1  0  0  0  0
 24 25  1  0  0  0  0
 24 39  1  0  0  0  0
 25 40  1  0  0  0  0
M  CHG  1  22  -1
M  END
> <rseq>
1

> <mseq>
116

> <S>
-5.66216

> <rmsd_refine>
1.738313

> <E_conf>
-29.39999

> <E_score1>
-9.123881

> <E_refine>
-32.15359

> <E_score2>
-5.66216

>  <$File>
outputs/pdb_4j58_cleaned.pdb_2024_06_17__22_47_40_V2_BS398_MIN1_/SDF/sdf_db.sdf

> <Rec_index>
1

>  <PLIF_raw>
[[17,17,17,4,6,7,10,8,5],[1212,1206,1212,954,954,954,954,954,954],[81,81,81,62,62,62,62,62,62],[2,7,7,10,10,10,10,10,10],[7.5,1.545423725,4.313888118,0.5,0.5,0.5,0.5,0.5,0.5]]

> <FP:PLIF>
21 17 18 24 25

>  <PLIF_ligidx>
[[4,6,7,10,8,5],17,17,[17,17],17]

$$$$
116
  MOE2022           3D

 44 45  0  0  0  0  0  0  0  0999 V2000
    4.6040   14.0220   10.5750 C   0  0  0  0  0  0  0  0  0  0  0  0
    3.8700   14.7070   11.5350 C   0  0  0  0  0  0  0  0  0  0  0  0
    3.7190   16.1010   11.4420 C   0  0  0  0  0  0  0  0  0  0  0  0
    4.7780   12.6690   10.6950 O   0  0  0  0  0  0  0  0  0  0  0  0
    4.2850   16.7730   10.3390 C   0  0  0  0  0  0  0  0  0  0  0  0
    3.0250   16.8190   12.5110 C   0  0  0  0  0  0  0  0  0  0  0  0
    3.1940   18.1840   12.6010 N   0  0  0  0  0  0  0  0  0  0  0  0
    2.3160   16.2610   13.3500 O   0  0  0  0  0  0  0  0  0  0  0  0
    5.1740   14.7050    9.5020 C   0  0  0  0  0  0  0  0  0  0  0  0
    2.7240   19.0100   13.6820 C   0  0  0  0  0  0  0  0  0  0  0  0
    3.0420   18.6550   15.0390 C   0  0  0  0  0  0  0  0  0  0  0  0
    1.9960   20.1270   13.3990 C   0  0  0  0  0  0  0  0  0  0  0  0
    3.8070   17.7420   15.3730 O   0  0  0  0  0  0  0  0  0  0  0  0
    1.7210   20.5360   12.1280 O   0  0  0  0  0  0  0  0  0  0  0  0
    1.4700   20.9210   14.4290 N   0  0  0  0  0  0  0  0  0  0  0  0
    5.8960   14.0200    8.5750 O   0  0  0  0  0  0  0  0  0  0  0  0
    2.4420   19.4110   16.0560 N   0  0  0  0  0  0  0  0  0  0  0  0
    0.6850   22.1340   14.1250 C   0  0  0  0  0  0  0  0  0  0  0  0
    1.6210   20.5220   15.7680 C   0  0  0  0  0  0  0  0  0  0  0  0
    5.0130   16.0810    9.3760 C   0  0  0  0  0  0  0  0  0  0  0  0
    1.0450   21.1250   16.6770 O   0  0  0  0  0  0  0  0  0  0  0  0
    2.6060   19.0070   17.4690 C   0  0  0  0  0  0  0  0  0  0  0  0
    1.4880   18.0790   17.9720 C   0  0  0  0  0  0  0  0  0  0  0  0
    1.4320   16.7480   17.2200 C   0  0  0  0  0  0  0  0  0  0  0  0
    0.2900   15.9350   17.6660 N   0  3  0  0  0  0  0  0  0  0  0  0
    3.4400   14.1780   12.3460 H   0  0  0  0  0  0  0  0  0  0  0  0
    4.4650   12.3670   11.5730 H   0  0  0  0  0  0  0  0  0  0  0  0
    4.1660   17.8200   10.2300 H   0  0  0  0  0  0  0  0  0  0  0  0
    3.6330   18.6520   11.7940 H   0  0  0  0  0  0  0  0  0  0  0  0
    1.1610   21.3360   12.1370 H   0  0  0  0  0  0  0  0  0  0  0  0
    5.9010   13.0720    8.8180 H   0  0  0  0  0  0  0  0  0  0  0  0
   -0.3110   21.8810   13.7860 H   0  0  0  0  0  0  0  0  0  0  0  0
    0.5740   22.7860   14.9810 H   0  0  0  0  0  0  0  0  0  0  0  0
    1.1530   22.7330   13.3560 H   0  0  0  0  0  0  0  0  0  0  0  0
    5.4410   16.5940    8.5540 H   0  0  0  0  0  0  0  0  0  0  0  0
    3.5670   18.5380   17.6300 H   0  0  0  0  0  0  0  0  0  0  0  0
    2.6440   19.8880   18.0930 H   0  0  0  0  0  0  0  0  0  0  0  0
    1.6540   17.8780   19.0310 H   0  0  0  0  0  0  0  0  0  0  0  0
    0.5330   18.5940   17.8630 H   0  0  0  0  0  0  0  0  0  0  0  0
    1.3360   16.9420   16.1500 H   0  0  0  0  0  0  0  0  0  0  0  0
    2.3600   16.2010   17.3940 H   0  0  0  0  0  0  0  0  0  0  0  0
   -0.5720   16.4250   17.4730 H   0  0  0  0  0  0  0  0  0  0  0  0
    0.2990   15.0540   17.1680 H   0  0  0  0  0  0  0  0  0  0  0  0
    0.3680   15.7580   18.6560 H   0  0  0  0  0  0  0  0  0  0  0  0
  1  2  1  0  0  0  0
  1  4  1  0  0  0  0
  1  9  2  0  0  0  0
  2  3  2  0  0  0  0
  2 26  1  0  0  0  0
  3  5  1  0  0  0  0
  3  6  1  0  0  0  0
  4 27  1  0  0  0  0
  5 20  2  0  0  0  0
  5 28  1  0  0  0  0
  6  7  1  0  0  0  0
  6  8  2  0  0  0  0
  7 10  1  0  0  0  0
  7 29  1  0  0  0  0
  9 16  1  0  0  0  0
  9 20  1  0  0  0  0
 10 11  1  0  0  0  0
 10 12  2  0  0  0  0
 11 13  2  0  0  0  0
 11 17  1  0  0  0  0
 12 14  1  0  0  0  0
 12 15  1  0  0  0  0
 14 30  1  0  0  0  0
 15 18  1  0  0  0  0
 15 19  1  0  0  0  0
 16 31  1  0  0  0  0
 17 19  1  0  0  0  0
 17 22  1  0  0  0  0
 18 32  1  0  0  0  0
 18 33  1  0  0  0  0
 18 34  1  0  0  0  0
 19 21  2  0  0  0  0
 20 35  1  0  0  0  0
 22 23  1  0  0  0  0
 22 36  1  0  0  0  0
 22 37  1  0  0  0  0
 23 24  1  0  0  0  0
 23 38  1  0  0  0  0
 23 39  1  0  0  0  0
 24 25  1  0  0  0  0
 24 40  1  0  0  0  0
 24 41  1  0  0  0  0
 25 42  1  0  0  0  0
 25 43  1  0  0  0  0
 25 44  1  0  0  0  0
M  CHG  1  25   1
M  END
> <rseq>
1

> <mseq>
117

> <S>
-4.550353

> <rmsd_refine>
2.051334

> <E_conf>
-144.8529

> <E_score1>
-10.33729

> <E_refine>
-24.43303

> <E_score2>
-4.550353

>  <$File>
outputs/pdb_4j58_cleaned.pdb_2024_06_17__22_47_40_V2_BS398_MIN1_/SDF/sdf_db.sdf

> <Rec_index>
1

>  <PLIF_raw>
[[4,25],[1056,1071],[70,71],[3,3],[2.9,2.4]]

> <FP:PLIF>
3 4 7 14

>  <PLIF_ligidx>
[4,4,25,25]

$$$$
117
  MOE2022           3D

 46 49  0  0  1  0  0  0  0  0999 V2000
    8.5790   20.6010   18.7260 C   0  0  0  0  0  0  0  0  0  0  0  0
    8.7770   21.9020   18.2800 C   0  0  0  0  0  0  0  0  0  0  0  0
    7.2910   20.1230   18.9300 C   0  0  0  0  0  0  0  0  0  0  0  0
    6.1940   20.9450   18.6830 C   0  0  0  0  0  0  0  0  0  0  0  0
    6.3970   22.2450   18.2220 C   0  0  0  0  0  0  0  0  0  0  0  0
    7.6860   22.7210   18.0190 C   0  0  0  0  0  0  0  0  0  0  0  0
    4.7900   20.4310   18.9010 C   0  0  0  0  0  0  0  0  0  0  0  0
    4.1550   19.7850   17.6860 C   0  0  0  0  0  0  0  0  0  0  0  0
    4.3050   20.3780   16.4990 N   0  0  0  0  0  0  0  0  0  0  0  0
    3.7340   19.8540   15.4170 C   0  0  0  0  0  0  0  0  0  0  0  0
    2.9660   18.6950   15.4750 C   0  0  0  0  0  0  0  0  0  0  0  0
    3.4010   18.6200   17.8170 C   0  0  0  0  0  0  0  0  0  0  0  0
    2.3450   18.1500   14.2070 C   0  0  1  0  0  0  0  0  0  0  0  0
    3.0330   16.9450   13.7590 N   0  0  0  0  0  0  0  0  0  0  0  0
    2.7980   18.0630   16.7010 C   0  0  0  0  0  0  0  0  0  0  0  0
    0.9280   17.8990   14.3750 O   0  0  0  0  0  0  0  0  0  0  0  0
    0.0730   19.0580   14.4780 C   0  0  0  0  0  0  0  0  0  0  0  0
    2.6560   15.6340   14.3160 C   0  0  0  0  0  0  0  0  0  0  0  0
    3.2200   16.7030   12.3950 C   0  0  0  0  0  0  0  0  0  0  0  0
    3.4230   17.6120   11.3590 C   0  0  0  0  0  0  0  0  0  0  0  0
    3.5950   17.1210   10.0630 C   0  0  0  0  0  0  0  0  0  0  0  0
    3.1900   15.3400   12.1440 C   0  0  0  0  0  0  0  0  0  0  0  0
    3.5570   15.7450    9.8130 C   0  0  0  0  0  0  0  0  0  0  0  0
    2.9750   14.6180   13.3130 N   0  0  0  0  0  0  0  0  0  0  0  0
    3.3490   14.8410   10.8570 C   0  0  0  0  0  0  0  0  0  0  0  0
    9.4110   19.9740   18.9090 H   0  0  0  0  0  0  0  0  0  0  0  0
    9.7570   22.2700   18.1420 H   0  0  0  0  0  0  0  0  0  0  0  0
    7.1470   19.1320   19.2730 H   0  0  0  0  0  0  0  0  0  0  0  0
    5.5670   22.8730   18.0190 H   0  0  0  0  0  0  0  0  0  0  0  0
    7.8360   23.7070   17.6640 H   0  0  0  0  0  0  0  0  0  0  0  0
    4.7950   19.7350   19.7280 H   0  0  0  0  0  0  0  0  0  0  0  0
    4.1640   21.2520   19.2210 H   0  0  0  0  0  0  0  0  0  0  0  0
    3.8800   20.3530   14.4940 H   0  0  0  0  0  0  0  0  0  0  0  0
    3.2820   18.1620   18.7650 H   0  0  0  0  0  0  0  0  0  0  0  0
    2.4310   18.9040   13.4370 H   0  0  0  0  0  0  0  0  0  0  0  0
    2.2180   17.1800   16.7860 H   0  0  0  0  0  0  0  0  0  0  0  0
   -0.9650   18.7380   14.5710 H   0  0  0  0  0  0  0  0  0  0  0  0
    0.3380   19.6460   15.3570 H   0  0  0  0  0  0  0  0  0  0  0  0
    0.1710   19.6780   13.5860 H   0  0  0  0  0  0  0  0  0  0  0  0
    3.1930   15.4430   15.2350 H   0  0  0  0  0  0  0  0  0  0  0  0
    1.6000   15.5960   14.5480 H   0  0  0  0  0  0  0  0  0  0  0  0
    3.4530   18.6530   11.5470 H   0  0  0  0  0  0  0  0  0  0  0  0
    3.7530   17.7950    9.2610 H   0  0  0  0  0  0  0  0  0  0  0  0
    3.6850   15.3860    8.8240 H   0  0  0  0  0  0  0  0  0  0  0  0
    2.2930   13.8510   13.2190 H   0  0  0  0  0  0  0  0  0  0  0  0
    3.3180   13.7970   10.6780 H   0  0  0  0  0  0  0  0  0  0  0  0
  1  2  2  0  0  0  0
  1  3  1  0  0  0  0
  1 26  1  0  0  0  0
  2  6  1  0  0  0  0
  2 27  1  0  0  0  0
  3  4  2  0  0  0  0
  3 28  1  0  0  0  0
  4  5  1  0  0  0  0
  4  7  1  0  0  0  0
  5  6  2  0  0  0  0
  5 29  1  0  0  0  0
  6 30  1  0  0  0  0
  7  8  1  0  0  0  0
  7 31  1  0  0  0  0
  7 32  1  0  0  0  0
  8  9  2  0  0  0  0
  8 12  1  0  0  0  0
  9 10  1  0  0  0  0
 10 11  2  0  0  0  0
 10 33  1  0  0  0  0
 11 13  1  0  0  0  0
 11 15  1  0  0  0  0
 12 15  2  0  0  0  0
 12 34  1  0  0  0  0
 13 14  1  0  0  0  0
 13 16  1  0  0  0  0
 13 35  1  0  0  0  0
 14 18  1  0  0  0  0
 14 19  1  0  0  0  0
 15 36  1  0  0  0  0
 16 17  1  0  0  0  0
 17 37  1  0  0  0  0
 17 38  1  0  0  0  0
 17 39  1  0  0  0  0
 18 24  1  0  0  0  0
 18 40  1  0  0  0  0
 18 41  1  0  0  0  0
 19 20  1  0  0  0  0
 19 22  2  0  0  0  0
 20 21  2  0  0  0  0
 20 42  1  0  0  0  0
 21 23  1  0  0  0  0
 21 43  1  0  0  0  0
 22 24  1  0  0  0  0
 22 25  1  0  0  0  0
 23 25  2  0  0  0  0
 23 44  1  0  0  0  0
 24 45  1  0  0  0  0
 25 46  1  0  0  0  0
M  END
> <rseq>
1

> <mseq>
118

> <S>
-5.621767

> <rmsd_refine>
0.9963196

> <E_conf>
-38.87235

> <E_score1>
-7.625602

> <E_refine>
-22.8481

> <E_score2>
-5.621767

>  <$File>
outputs/pdb_4j58_cleaned.pdb_2024_06_17__22_47_40_V2_BS398_MIN1_/SDF/sdf_db.sdf

> <Rec_index>
1

>  <PLIF_raw>
[[],[],[],[],[]]

>  <PLIF_ligidx>
[]

$$$$
118
  MOE2022           3D

 44 47  0  0  1  0  0  0  0  0999 V2000
    8.6160   20.8790   18.4880 C   0  0  0  0  0  0  0  0  0  0  0  0
    8.6100   22.0990   17.8200 C   0  0  0  0  0  0  0  0  0  0  0  0
    7.4160   20.2360   18.7750 C   0  0  0  0  0  0  0  0  0  0  0  0
    6.2040   20.8150   18.4020 C   0  0  0  0  0  0  0  0  0  0  0  0
    6.2060   22.0390   17.7330 C   0  0  0  0  0  0  0  0  0  0  0  0
    7.4060   22.6780   17.4400 C   0  0  0  0  0  0  0  0  0  0  0  0
    4.8910   20.1450   18.7530 C   0  0  0  0  0  0  0  0  0  0  0  0
    4.1220   19.4870   17.6190 C   0  0  0  0  0  0  0  0  0  0  0  0
    4.1850   20.0070   16.3890 N   0  0  0  0  0  0  0  0  0  0  0  0
    3.4520   19.4900   15.4050 C   0  0  0  0  0  0  0  0  0  0  0  0
    2.5940   18.4110   15.6100 C   0  0  0  0  0  0  0  0  0  0  0  0
    3.3070   18.3870   17.8850 C   0  0  0  0  0  0  0  0  0  0  0  0
    1.7220   17.9100   14.4740 C   0  0  1  0  0  0  0  0  0  0  0  0
    2.2140   16.6780   13.8690 N   0  0  0  0  0  0  0  0  0  0  0  0
    2.5370   17.8360   16.8730 C   0  0  0  0  0  0  0  0  0  0  0  0
    0.3430   17.7490   14.9080 O   0  0  0  0  0  0  0  0  0  0  0  0
   -0.3840   18.9560   15.2340 C   0  0  0  0  0  0  0  0  0  0  0  0
    2.0620   15.4200   14.3770 C   0  0  0  0  0  0  0  0  0  0  0  0
    2.8880   16.5560   12.6910 C   0  0  0  0  0  0  0  0  0  0  0  0
    3.3090   17.5040   11.7480 C   0  0  0  0  0  0  0  0  0  0  0  0
    2.5830   14.5130   13.6160 N   0  0  0  0  0  0  0  0  0  0  0  0
    3.1100   15.2000   12.5430 C   0  0  0  0  0  0  0  0  0  0  0  0
    3.9800   17.0420   10.6280 C   0  0  0  0  0  0  0  0  0  0  0  0
    3.7930   14.7410   11.4060 C   0  0  0  0  0  0  0  0  0  0  0  0
    4.2240   15.6600   10.4590 C   0  0  0  0  0  0  0  0  0  0  0  0
    9.5340   20.4410   18.7820 H   0  0  0  0  0  0  0  0  0  0  0  0
    9.5210   22.5880   17.6010 H   0  0  0  0  0  0  0  0  0  0  0  0
    7.4300   19.3080   19.2850 H   0  0  0  0  0  0  0  0  0  0  0  0
    5.2900   22.4880   17.4460 H   0  0  0  0  0  0  0  0  0  0  0  0
    7.4020   23.6070   16.9310 H   0  0  0  0  0  0  0  0  0  0  0  0
    5.0520   19.4260   19.5440 H   0  0  0  0  0  0  0  0  0  0  0  0
    4.2530   20.8960   19.1940 H   0  0  0  0  0  0  0  0  0  0  0  0
    3.5260   19.9390   14.4480 H   0  0  0  0  0  0  0  0  0  0  0  0
    3.2600   17.9790   18.8620 H   0  0  0  0  0  0  0  0  0  0  0  0
    1.7000   18.6720   13.7070 H   0  0  0  0  0  0  0  0  0  0  0  0
    1.9050   17.0070   17.0680 H   0  0  0  0  0  0  0  0  0  0  0  0
   -1.4100   18.7020   15.5010 H   0  0  0  0  0  0  0  0  0  0  0  0
    0.0810   19.4630   16.0800 H   0  0  0  0  0  0  0  0  0  0  0  0
   -0.4000   19.6280   14.3750 H   0  0  0  0  0  0  0  0  0  0  0  0
    1.5580   15.2720   15.2980 H   0  0  0  0  0  0  0  0  0  0  0  0
    3.1190   18.5370   11.8860 H   0  0  0  0  0  0  0  0  0  0  0  0
    4.3130   17.7240    9.8890 H   0  0  0  0  0  0  0  0  0  0  0  0
    3.9750   13.7060   11.2780 H   0  0  0  0  0  0  0  0  0  0  0  0
    4.7390   15.3250    9.5960 H   0  0  0  0  0  0  0  0  0  0  0  0
  1  2  2  0  0  0  0
  1  3  1  0  0  0  0
  1 26  1  0  0  0  0
  2  6  1  0  0  0  0
  2 27  1  0  0  0  0
  3  4  2  0  0  0  0
  3 28  1  0  0  0  0
  4  5  1  0  0  0  0
  4  7  1  0  0  0  0
  5  6  2  0  0  0  0
  5 29  1  0  0  0  0
  6 30  1  0  0  0  0
  7  8  1  0  0  0  0
  7 31  1  0  0  0  0
  7 32  1  0  0  0  0
  8  9  2  0  0  0  0
  8 12  1  0  0  0  0
  9 10  1  0  0  0  0
 10 11  2  0  0  0  0
 10 33  1  0  0  0  0
 11 13  1  0  0  0  0
 11 15  1  0  0  0  0
 12 15  2  0  0  0  0
 12 34  1  0  0  0  0
 13 14  1  0  0  0  0
 13 16  1  0  0  0  0
 13 35  1  0  0  0  0
 14 18  1  0  0  0  0
 14 19  1  0  0  0  0
 15 36  1  0  0  0  0
 16 17  1  0  0  0  0
 17 37  1  0  0  0  0
 17 38  1  0  0  0  0
 17 39  1  0  0  0  0
 18 21  2  0  0  0  0
 18 40  1  0  0  0  0
 19 20  2  0  0  0  0
 19 22  1  0  0  0  0
 20 23  1  0  0  0  0
 20 41  1  0  0  0  0
 21 22  1  0  0  0  0
 22 24  2  0  0  0  0
 23 25  2  0  0  0  0
 23 42  1  0  0  0  0
 24 25  1  0  0  0  0
 24 43  1  0  0  0  0
 25 44  1  0  0  0  0
M  END
> <rseq>
1

> <mseq>
119

> <S>
-5.617609

> <rmsd_refine>
0.8590794

> <E_conf>
49.35738

> <E_score1>
-7.599935

> <E_refine>
-26.16928

> <E_score2>
-5.617609

>  <$File>
outputs/pdb_4j58_cleaned.pdb_2024_06_17__22_47_40_V2_BS398_MIN1_/SDF/sdf_db.sdf

> <Rec_index>
1

>  <PLIF_raw>
[[],[],[],[],[]]

>  <PLIF_ligidx>
[]

$$$$
119
  MOE2022           3D

 48 50  0  0  1  0  0  0  0  0999 V2000
    2.4660   16.5720   21.0300 O   0  0  0  0  0  0  0  0  0  0  0  0
    1.5090   16.0190   20.4500 C   0  0  0  0  0  0  0  0  0  0  0  0
    0.5760   15.4220   21.0340 O   0  5  0  0  0  0  0  0  0  0  0  0
    1.4550   16.0640   18.9340 C   0  0  1  0  0  0  0  0  0  0  0  0
    0.6970   17.2410   18.3350 C   0  0  0  0  0  0  0  0  0  0  0  0
    2.7340   16.1430   18.2420 N   0  0  0  0  0  0  0  0  0  0  0  0
    1.4090   17.5190   17.0930 N   0  0  0  0  0  0  0  0  0  0  0  0
    2.6480   16.9240   17.1290 C   0  0  0  0  0  0  0  0  0  0  0  0
    0.7730   18.1410   15.9270 C   0  0  0  0  0  0  0  0  0  0  0  0
    3.5320   17.0260   16.2750 O   0  0  0  0  0  0  0  0  0  0  0  0
    1.0060   17.4460   14.5650 C   0  0  0  0  0  0  0  0  0  0  0  0
    1.1060   15.9050   14.5880 C   0  0  1  0  0  0  0  0  0  0  0  0
    0.1040   15.2160   15.4600 N   0  3  0  0  0  0  0  0  0  0  0  0
    1.2170   15.3250   13.1870 C   0  0  0  0  0  0  0  0  0  0  0  0
    2.4780   14.9930   12.7400 C   0  0  0  0  0  0  0  0  0  0  0  0
    0.0850   15.1230   12.3340 C   0  0  0  0  0  0  0  0  0  0  0  0
   -1.2410   15.5200   12.6740 C   0  0  0  0  0  0  0  0  0  0  0  0
    2.6820   14.4350   11.4600 C   0  0  0  0  0  0  0  0  0  0  0  0
    0.2870   14.5010   11.0740 C   0  0  0  0  0  0  0  0  0  0  0  0
   -0.8260   14.2170   10.2430 C   0  0  0  0  0  0  0  0  0  0  0  0
   -2.0940   14.5770   10.6230 C   0  0  0  0  0  0  0  0  0  0  0  0
   -2.3010   15.2450   11.8440 C   0  0  0  0  0  0  0  0  0  0  0  0
    1.6010   14.1840   10.6520 C   0  0  0  0  0  0  0  0  0  0  0  0
    4.0860   14.1340   10.9690 C   0  0  0  0  0  0  0  0  0  0  0  0
    4.6720   15.2650   10.1200 C   0  0  0  0  0  0  0  0  0  0  0  0
    0.9390   15.1760   18.6050 H   0  0  0  0  0  0  0  0  0  0  0  0
   -0.3460   17.0020   18.1760 H   0  0  0  0  0  0  0  0  0  0  0  0
    0.7580   18.1010   18.9870 H   0  0  0  0  0  0  0  0  0  0  0  0
    3.4870   15.4520   18.3760 H   0  0  0  0  0  0  0  0  0  0  0  0
   -0.2930   18.1870   16.1050 H   0  0  0  0  0  0  0  0  0  0  0  0
    1.0840   19.1760   15.8590 H   0  0  0  0  0  0  0  0  0  0  0  0
    0.2100   17.7530   13.8870 H   0  0  0  0  0  0  0  0  0  0  0  0
    1.9430   17.8220   14.1500 H   0  0  0  0  0  0  0  0  0  0  0  0
    2.0730   15.7100   15.0300 H   0  0  0  0  0  0  0  0  0  0  0  0
   -0.8300   15.3050   15.0910 H   0  0  0  0  0  0  0  0  0  0  0  0
    0.3210   14.2330   15.5400 H   0  0  0  0  0  0  0  0  0  0  0  0
    0.1250   15.6070   16.3920 H   0  0  0  0  0  0  0  0  0  0  0  0
    3.3210   15.1580   13.3620 H   0  0  0  0  0  0  0  0  0  0  0  0
   -1.4270   16.0450   13.5720 H   0  0  0  0  0  0  0  0  0  0  0  0
   -0.6710   13.7260    9.3170 H   0  0  0  0  0  0  0  0  0  0  0  0
   -2.9230   14.3650    9.9970 H   0  0  0  0  0  0  0  0  0  0  0  0
   -3.2830   15.5380   12.1140 H   0  0  0  0  0  0  0  0  0  0  0  0
    1.7430   13.7570    9.6930 H   0  0  0  0  0  0  0  0  0  0  0  0
    4.7430   13.9660   11.8200 H   0  0  0  0  0  0  0  0  0  0  0  0
    4.0710   13.2180   10.3780 H   0  0  0  0  0  0  0  0  0  0  0  0
    4.6710   16.1940   10.6900 H   0  0  0  0  0  0  0  0  0  0  0  0
    5.6950   15.0160    9.8350 H   0  0  0  0  0  0  0  0  0  0  0  0
    4.0720   15.3970    9.2190 H   0  0  0  0  0  0  0  0  0  0  0  0
  1  2  2  0  0  0  0
  2  3  1  0  0  0  0
  2  4  1  0  0  0  0
  4  5  1  0  0  0  0
  4  6  1  0  0  0  0
  4 26  1  0  0  0  0
  5  7  1  0  0  0  0
  5 27  1  0  0  0  0
  5 28  1  0  0  0  0
  6  8  1  0  0  0  0
  6 29  1  0  0  0  0
  7  8  1  0  0  0  0
  7  9  1  0  0  0  0
  8 10  2  0  0  0  0
  9 11  1  0  0  0  0
  9 30  1  0  0  0  0
  9 31  1  0  0  0  0
 11 12  1  0  0  0  0
 11 32  1  0  0  0  0
 11 33  1  0  0  0  0
 12 13  1  0  0  0  0
 12 14  1  0  0  0  0
 12 34  1  0  0  0  0
 13 35  1  0  0  0  0
 13 36  1  0  0  0  0
 13 37  1  0  0  0  0
 14 15  1  0  0  0  0
 14 16  2  0  0  0  0
 15 18  2  0  0  0  0
 15 38  1  0  0  0  0
 16 17  1  0  0  0  0
 16 19  1  0  0  0  0
 17 22  2  0  0  0  0
 17 39  1  0  0  0  0
 18 23  1  0  0  0  0
 18 24  1  0  0  0  0
 19 20  1  0  0  0  0
 19 23  2  0  0  0  0
 20 21  2  0  0  0  0
 20 40  1  0  0  0  0
 21 22  1  0  0  0  0
 21 41  1  0  0  0  0
 22 42  1  0  0  0  0
 23 43  1  0  0  0  0
 24 25  1  0  0  0  0
 24 44  1  0  0  0  0
 24 45  1  0  0  0  0
 25 46  1  0  0  0  0
 25 47  1  0  0  0  0
 25 48  1  0  0  0  0
M  CHG  1   3  -1
M  CHG  1  13   1
M  END
> <rseq>
1

> <mseq>
120

> <S>
-4.990474

> <rmsd_refine>
1.653117

> <E_conf>
-160.917

> <E_score1>
-7.503016

> <E_refine>
-30.2962

> <E_score2>
-4.990474

>  <$File>
outputs/pdb_4j58_cleaned.pdb_2024_06_17__22_47_40_V2_BS398_MIN1_/SDF/sdf_db.sdf

> <Rec_index>
1

>  <PLIF_raw>
[[6,3,3,10,3,3],[1617,1206,1212,954,1206,1212],[110,81,81,62,81,81],[1,2,2,2,7,7],[3.3,5.4,3.5,3.1,3.941175244,4.382483665]]

> <FP:PLIF>
20 23 17 18 24 25 26 38

>  <PLIF_ligidx>
[10,10,[3,3],[3,3],[3,3],[3,3],6,6]

$$$$
132
  MOE2022           3D

 47 50  0  0  1  0  0  0  0  0999 V2000
    8.6530   20.9130   18.4970 C   0  0  0  0  0  0  0  0  0  0  0  0
    8.6350   22.1320   17.8280 C   0  0  0  0  0  0  0  0  0  0  0  0
    7.4600   20.2700   18.8080 C   0  0  0  0  0  0  0  0  0  0  0  0
    6.2410   20.8500   18.4600 C   0  0  0  0  0  0  0  0  0  0  0  0
    6.2300   22.0750   17.7930 C   0  0  0  0  0  0  0  0  0  0  0  0
    7.4230   22.7130   17.4750 C   0  0  0  0  0  0  0  0  0  0  0  0
    4.9360   20.1780   18.8320 C   0  0  0  0  0  0  0  0  0  0  0  0
    4.1510   19.5230   17.7070 C   0  0  0  0  0  0  0  0  0  0  0  0
    4.2020   20.0450   16.4780 N   0  0  0  0  0  0  0  0  0  0  0  0
    3.4570   19.5300   15.5010 C   0  0  0  0  0  0  0  0  0  0  0  0
    2.6000   18.4530   15.7140 C   0  0  0  0  0  0  0  0  0  0  0  0
    3.3380   18.4240   17.9810 C   0  0  0  0  0  0  0  0  0  0  0  0
    1.7170   17.9520   14.5860 C   0  0  1  0  0  0  0  0  0  0  0  0
    2.2040   16.7190   13.9800 N   0  0  0  0  0  0  0  0  0  0  0  0
    2.5550   17.8770   16.9770 C   0  0  0  0  0  0  0  0  0  0  0  0
    0.3430   17.7930   15.0320 O   0  0  0  0  0  0  0  0  0  0  0  0
   -0.3790   19.0010   15.3690 C   0  0  0  0  0  0  0  0  0  0  0  0
    2.1050   15.4700   14.5220 C   0  0  0  0  0  0  0  0  0  0  0  0
    2.8150   16.5820   12.7700 C   0  0  0  0  0  0  0  0  0  0  0  0
    3.1530   17.5150   11.7810 C   0  0  0  0  0  0  0  0  0  0  0  0
    2.6030   14.5570   13.7550 N   0  0  0  0  0  0  0  0  0  0  0  0
    3.0580   15.2290   12.6410 C   0  0  0  0  0  0  0  0  0  0  0  0
    3.7600   17.0440   10.6270 C   0  0  0  0  0  0  0  0  0  0  0  0
    3.6820   14.7590   11.4770 C   0  0  0  0  0  0  0  0  0  0  0  0
    4.1080   18.0020    9.5090 C   0  0  0  0  0  0  0  0  0  0  0  0
    4.0270   15.6620   10.4810 C   0  0  0  0  0  0  0  0  0  0  0  0
    9.5770   20.4750   18.7720 H   0  0  0  0  0  0  0  0  0  0  0  0
    9.5410   22.6200   17.5890 H   0  0  0  0  0  0  0  0  0  0  0  0
    7.4840   19.3410   19.3160 H   0  0  0  0  0  0  0  0  0  0  0  0
    5.3080   22.5250   17.5260 H   0  0  0  0  0  0  0  0  0  0  0  0
    7.4090   23.6420   16.9660 H   0  0  0  0  0  0  0  0  0  0  0  0
    5.1110   19.4560   19.6180 H   0  0  0  0  0  0  0  0  0  0  0  0
    4.3050   20.9270   19.2860 H   0  0  0  0  0  0  0  0  0  0  0  0
    3.5230   19.9800   14.5430 H   0  0  0  0  0  0  0  0  0  0  0  0
    3.3020   18.0150   18.9580 H   0  0  0  0  0  0  0  0  0  0  0  0
    1.6900   18.7140   13.8180 H   0  0  0  0  0  0  0  0  0  0  0  0
    1.9230   17.0500   17.1790 H   0  0  0  0  0  0  0  0  0  0  0  0
   -1.4040   18.7480   15.6420 H   0  0  0  0  0  0  0  0  0  0  0  0
    0.0930   19.5020   16.2150 H   0  0  0  0  0  0  0  0  0  0  0  0
   -0.4000   19.6770   14.5140 H   0  0  0  0  0  0  0  0  0  0  0  0
    1.6510   15.3340   15.4700 H   0  0  0  0  0  0  0  0  0  0  0  0
    2.9410   18.5450   11.9090 H   0  0  0  0  0  0  0  0  0  0  0  0
    3.8800   13.7240   11.3620 H   0  0  0  0  0  0  0  0  0  0  0  0
    4.5050   18.9350    9.9090 H   0  0  0  0  0  0  0  0  0  0  0  0
    4.8520   17.5700    8.8400 H   0  0  0  0  0  0  0  0  0  0  0  0
    3.2170   18.2320    8.9230 H   0  0  0  0  0  0  0  0  0  0  0  0
    4.4900   15.3100    9.5960 H   0  0  0  0  0  0  0  0  0  0  0  0
  1  2  2  0  0  0  0
  1  3  1  0  0  0  0
  1 27  1  0  0  0  0
  2  6  1  0  0  0  0
  2 28  1  0  0  0  0
  3  4  2  0  0  0  0
  3 29  1  0  0  0  0
  4  5  1  0  0  0  0
  4  7  1  0  0  0  0
  5  6  2  0  0  0  0
  5 30  1  0  0  0  0
  6 31  1  0  0  0  0
  7  8  1  0  0  0  0
  7 32  1  0  0  0  0
  7 33  1  0  0  0  0
  8  9  2  0  0  0  0
  8 12  1  0  0  0  0
  9 10  1  0  0  0  0
 10 11  2  0  0  0  0
 10 34  1  0  0  0  0
 11 13  1  0  0  0  0
 11 15  1  0  0  0  0
 12 15  2  0  0  0  0
 12 35  1  0  0  0  0
 13 14  1  0  0  0  0
 13 16  1  0  0  0  0
 13 36  1  0  0  0  0
 14 18  1  0  0  0  0
 14 19  1  0  0  0  0
 15 37  1  0  0  0  0
 16 17  1  0  0  0  0
 17 38  1  0  0  0  0
 17 39  1  0  0  0  0
 17 40  1  0  0  0  0
 18 21  2  0  0  0  0
 18 41  1  0  0  0  0
 19 20  1  0  0  0  0
 19 22  2  0  0  0  0
 20 23  2  0  0  0  0
 20 42  1  0  0  0  0
 21 22  1  0  0  0  0
 22 24  1  0  0  0  0
 23 25  1  0  0  0  0
 23 26  1  0  0  0  0
 24 26  2  0  0  0  0
 24 43  1  0  0  0  0
 25 44  1  0  0  0  0
 25 45  1  0  0  0  0
 25 46  1  0  0  0  0
 26 47  1  0  0  0  0
M  END
> <rseq>
1

> <mseq>
133

> <S>
-5.748545

> <rmsd_refine>
0.8974681

> <E_conf>
42.28601

> <E_score1>
-8.10705

> <E_refine>
-27.12895

> <E_score2>
-5.748545

>  <$File>
outputs/pdb_4j58_cleaned.pdb_2024_06_17__22_47_40_V2_BS398_MIN1_/SDF/sdf_db.sdf

> <Rec_index>
1

>  <PLIF_raw>
[[],[],[],[],[]]

>  <PLIF_ligidx>
[]

$$$$
133
  MOE2022           3D

 46 47  0  0  1  0  0  0  0  0999 V2000
    6.0510   14.7250    9.8700 C   0  0  0  0  0  0  0  0  0  0  0  0
    5.8050   15.6670    8.8760 C   0  0  0  0  0  0  0  0  0  0  0  0
    4.5420   16.2320    8.7510 C   0  0  0  0  0  0  0  0  0  0  0  0
    3.5250   15.8590    9.6220 C   0  0  0  0  0  0  0  0  0  0  0  0
    5.0320   14.3520   10.7420 C   0  0  0  0  0  0  0  0  0  0  0  0
    3.7630   14.9200   10.6250 C   0  0  0  0  0  0  0  0  0  0  0  0
    2.6530   14.5660   11.5960 C   0  0  0  0  0  0  0  0  0  0  0  0
    2.4200   15.6820   12.5890 C   0  0  0  0  0  0  0  0  0  0  0  0
    1.9600   16.7570   12.2530 O   0  0  0  0  0  0  0  0  0  0  0  0
    2.7780   15.4520   13.8990 N   0  0  0  0  0  0  0  0  0  0  0  0
    2.9990   16.4450   14.8690 C   0  0  0  0  0  0  0  0  0  0  0  0
    3.3530   17.7270   14.6120 C   0  0  0  0  0  0  0  0  0  0  0  0
    3.6420   18.6470   15.6860 C   0  0  0  0  0  0  0  0  0  0  0  0
    3.4670   18.3180   16.9830 C   0  0  0  0  0  0  0  0  0  0  0  0
    2.9010   15.9250   16.3070 N   0  3  0  0  0  0  0  0  0  0  0  0
    2.8450   16.9840   17.3910 C   0  0  2  0  0  0  0  0  0  0  0  0
    3.7680   19.2850   18.1120 C   0  0  0  0  0  0  0  0  0  0  0  0
    5.1000   20.0090   18.0720 C   0  0  0  0  0  0  0  0  0  0  0  0
    1.4650   17.1690   18.0000 C   0  0  0  0  0  0  0  0  0  0  0  0
    0.5270   17.4870   17.2370 O   0  0  0  0  0  0  0  0  0  0  0  0
    5.4670   20.7200   17.1350 O   0  0  0  0  0  0  0  0  0  0  0  0
    5.8550   19.9180   19.1880 O   0  0  0  0  0  0  0  0  0  0  0  0
    1.3410   16.8970   19.2140 O   0  5  0  0  0  0  0  0  0  0  0  0
    7.0410   20.7340   19.3990 C   0  0  0  0  0  0  0  0  0  0  0  0
    8.2560   20.2630   18.5990 C   0  0  0  0  0  0  0  0  0  0  0  0
    9.2800   21.2260   18.7190 O   0  0  0  0  0  0  0  0  0  0  0  0
    7.0120   14.2910    9.9660 H   0  0  0  0  0  0  0  0  0  0  0  0
    6.5740   15.9560    8.2090 H   0  0  0  0  0  0  0  0  0  0  0  0
    4.3550   16.9480    7.9930 H   0  0  0  0  0  0  0  0  0  0  0  0
    2.5660   16.2990    9.5230 H   0  0  0  0  0  0  0  0  0  0  0  0
    5.2290   13.6370   11.4980 H   0  0  0  0  0  0  0  0  0  0  0  0
    1.7390   14.3810   11.0480 H   0  0  0  0  0  0  0  0  0  0  0  0
    2.8760   13.6390   12.1050 H   0  0  0  0  0  0  0  0  0  0  0  0
    2.9270   14.4680   14.1720 H   0  0  0  0  0  0  0  0  0  0  0  0
    3.4660   18.0850   13.6230 H   0  0  0  0  0  0  0  0  0  0  0  0
    4.0010   19.6050   15.4140 H   0  0  0  0  0  0  0  0  0  0  0  0
    2.0290   15.3150   16.4030 H   0  0  0  0  0  0  0  0  0  0  0  0
    3.6880   15.2410   16.5080 H   0  0  0  0  0  0  0  0  0  0  0  0
    3.4420   16.6340   18.2210 H   0  0  0  0  0  0  0  0  0  0  0  0
    2.9800   20.0250   18.1300 H   0  0  0  0  0  0  0  0  0  0  0  0
    3.7050   18.7510   19.0490 H   0  0  0  0  0  0  0  0  0  0  0  0
    6.8120   21.7660   19.1300 H   0  0  0  0  0  0  0  0  0  0  0  0
    7.2910   20.7060   20.4600 H   0  0  0  0  0  0  0  0  0  0  0  0
    8.6000   19.3060   18.9890 H   0  0  0  0  0  0  0  0  0  0  0  0
    7.9910   20.1510   17.5470 H   0  0  0  0  0  0  0  0  0  0  0  0
   10.0690   20.8930   18.2840 H   0  0  0  0  0  0  0  0  0  0  0  0
  1  2  1  0  0  0  0
  1  5  2  0  0  0  0
  1 27  1  0  0  0  0
  2  3  2  0  0  0  0
  2 28  1  0  0  0  0
  3  4  1  0  0  0  0
  3 29  1  0  0  0  0
  4  6  2  0  0  0  0
  4 30  1  0  0  0  0
  5  6  1  0  0  0  0
  5 31  1  0  0  0  0
  6  7  1  0  0  0  0
  7  8  1  0  0  0  0
  7 32  1  0  0  0  0
  7 33  1  0  0  0  0
  8  9  2  0  0  0  0
  8 10  1  0  0  0  0
 10 11  1  0  0  0  0
 10 34  1  0  0  0  0
 11 12  2  0  0  0  0
 11 15  1  0  0  0  0
 12 13  1  0  0  0  0
 12 35  1  0  0  0  0
 13 14  2  0  0  0  0
 13 36  1  0  0  0  0
 14 16  1  0  0  0  0
 14 17  1  0  0  0  0
 15 16  1  0  0  0  0
 15 37  1  0  0  0  0
 15 38  1  0  0  0  0
 16 19  1  0  0  0  0
 16 39  1  0  0  0  0
 17 18  1  0  0  0  0
 17 40  1  0  0  0  0
 17 41  1  0  0  0  0
 18 21  2  0  0  0  0
 18 22  1  0  0  0  0
 19 20  2  0  0  0  0
 19 23  1  0  0  0  0
 22 24  1  0  0  0  0
 24 25  1  0  0  0  0
 24 42  1  0  0  0  0
 24 43  1  0  0  0  0
 25 26  1  0  0  0  0
 25 44  1  0  0  0  0
 25 45  1  0  0  0  0
 26 46  1  0  0  0  0
M  CHG  1  15   1
M  CHG  1  23  -1
M  END
> <rseq>
1

> <mseq>
134

> <S>
-6.397393

> <rmsd_refine>
1.388159

> <E_conf>
-88.18475

> <E_score1>
-10.42454

> <E_refine>
-32.59954

> <E_score2>
-6.397393

>  <$File>
outputs/pdb_4j58_cleaned.pdb_2024_06_17__22_47_40_V2_BS398_MIN1_/SDF/sdf_db.sdf

> <Rec_index>
1

>  <PLIF_raw>
[[15,26,1,5,6,4,3,2],[1071,924,823,823,823,823,823,823],[71,60,54,54,54,54,54,54],[3,1,10,10,10,10,10,10],[2.2,1.3,1.3,1.3,1.3,1.3,1.3,1.3]]

> <FP:PLIF>
2 5 37 7 14

>  <PLIF_ligidx>
[[1,5,6,4,3,2],[1,5,6,4,3,2],26,15,15]

$$$$
134
  MOE2022           3D

 44 46  0  0  1  0  0  0  0  0999 V2000
    4.9910   14.5500    9.8240 C   0  0  0  0  0  0  0  0  0  0  0  0
    5.2230   15.8090    9.2840 C   0  0  0  0  0  0  0  0  0  0  0  0
    4.1120   14.4340   10.8950 C   0  0  0  0  0  0  0  0  0  0  0  0
    6.0650   15.9290    8.2340 F   0  0  0  0  0  0  0  0  0  0  0  0
    3.4820   15.5690   11.4300 C   0  0  0  0  0  0  0  0  0  0  0  0
    2.5650   15.4560   12.5430 C   0  0  0  0  0  0  0  0  0  0  0  0
    4.6110   16.9510    9.7860 C   0  0  0  0  0  0  0  0  0  0  0  0
    3.7470   16.8270   10.8660 C   0  0  0  0  0  0  0  0  0  0  0  0
    2.8310   16.0190   13.7770 N   0  0  0  0  0  0  0  0  0  0  0  0
    1.3270   14.8720   12.6410 C   0  0  0  0  0  0  0  0  0  0  0  0
    1.7770   15.7950   14.6200 C   0  0  0  0  0  0  0  0  0  0  0  0
    1.7420   16.2470   15.9580 N   0  0  0  0  0  0  0  0  0  0  0  0
    0.8280   15.0970   13.9260 C   0  0  0  0  0  0  0  0  0  0  0  0
    0.7080   17.2560   16.2140 C   0  0  0  0  0  0  0  0  0  0  0  0
    2.9870   16.7270   16.5730 C   0  0  0  0  0  0  0  0  0  0  0  0
    2.8060   18.1960   17.0050 C   0  0  2  0  0  0  0  0  0  0  0  0
    3.6220   18.4960   18.2670 C   0  0  0  0  0  0  0  0  0  0  0  0
    1.2790   18.2840   17.1900 C   0  0  0  0  0  0  0  0  0  0  0  0
    3.2400   19.1380   15.8730 C   0  0  0  0  0  0  0  0  0  0  0  0
    3.9440   18.6910   14.9380 O   0  5  0  0  0  0  0  0  0  0  0  0
    2.8970   20.3390   15.9460 O   0  0  0  0  0  0  0  0  0  0  0  0
    3.4650   17.8130   19.4290 O   0  0  0  0  0  0  0  0  0  0  0  0
    4.5460   19.3090   18.2740 O   0  0  0  0  0  0  0  0  0  0  0  0
    2.5070   16.8380   19.8950 C   0  0  0  0  0  0  0  0  0  0  0  0
    2.9700   16.2380   21.1150 O   0  0  0  0  0  0  0  0  0  0  0  0
    1.9980   15.4900   21.8590 C   0  0  0  0  0  0  0  0  0  0  0  0
    5.4710   13.6950    9.4240 H   0  0  0  0  0  0  0  0  0  0  0  0
    3.9160   13.4810   11.3150 H   0  0  0  0  0  0  0  0  0  0  0  0
    4.7950   17.8980    9.3500 H   0  0  0  0  0  0  0  0  0  0  0  0
    3.2760   17.6890   11.2650 H   0  0  0  0  0  0  0  0  0  0  0  0
    3.6700   16.5700   14.0260 H   0  0  0  0  0  0  0  0  0  0  0  0
    0.8320   14.3540   11.8610 H   0  0  0  0  0  0  0  0  0  0  0  0
   -0.1090   14.7930   14.3100 H   0  0  0  0  0  0  0  0  0  0  0  0
    0.4430   17.7540   15.2890 H   0  0  0  0  0  0  0  0  0  0  0  0
   -0.1930   16.8010   16.5990 H   0  0  0  0  0  0  0  0  0  0  0  0
    3.1830   16.0980   17.4250 H   0  0  0  0  0  0  0  0  0  0  0  0
    3.8620   16.5740   15.9590 H   0  0  0  0  0  0  0  0  0  0  0  0
    0.8780   19.2790   16.9950 H   0  0  0  0  0  0  0  0  0  0  0  0
    0.9790   17.9950   18.1910 H   0  0  0  0  0  0  0  0  0  0  0  0
    1.5620   17.3260   20.0880 H   0  0  0  0  0  0  0  0  0  0  0  0
    2.3370   16.0610   19.1650 H   0  0  0  0  0  0  0  0  0  0  0  0
    1.1650   16.1340   22.1410 H   0  0  0  0  0  0  0  0  0  0  0  0
    1.6290   14.6660   21.2510 H   0  0  0  0  0  0  0  0  0  0  0  0
    2.4580   15.0900   22.7630 H   0  0  0  0  0  0  0  0  0  0  0  0
  1  2  2  0  0  0  0
  1  3  1  0  0  0  0
  1 27  1  0  0  0  0
  2  4  1  0  0  0  0
  2  7  1  0  0  0  0
  3  5  2  0  0  0  0
  3 28  1  0  0  0  0
  5  6  1  0  0  0  0
  5  8  1  0  0  0  0
  6  9  1  0  0  0  0
  6 10  2  0  0  0  0
  7  8  2  0  0  0  0
  7 29  1  0  0  0  0
  8 30  1  0  0  0  0
  9 11  1  0  0  0  0
  9 31  1  0  0  0  0
 10 13  1  0  0  0  0
 10 32  1  0  0  0  0
 11 12  1  0  0  0  0
 11 13  2  0  0  0  0
 12 14  1  0  0  0  0
 12 15  1  0  0  0  0
 13 33  1  0  0  0  0
 14 18  1  0  0  0  0
 14 34  1  0  0  0  0
 14 35  1  0  0  0  0
 15 16  1  0  0  0  0
 15 36  1  0  0  0  0
 15 37  1  0  0  0  0
 16 17  1  0  0  0  0
 16 18  1  0  0  0  0
 16 19  1  0  0  0  0
 17 22  1  0  0  0  0
 17 23  2  0  0  0  0
 18 38  1  0  0  0  0
 18 39  1  0  0  0  0
 19 20  1  0  0  0  0
 19 21  2  0  0  0  0
 22 24  1  0  0  0  0
 24 25  1  0  0  0  0
 24 40  1  0  0  0  0
 24 41  1  0  0  0  0
 25 26  1  0  0  0  0
 26 42  1  0  0  0  0
 26 43  1  0  0  0  0
 26 44  1  0  0  0  0
M  CHG  1  20  -1
M  END
> <rseq>
1

> <mseq>
135

> <S>
-6.286805

> <rmsd_refine>
0.9537347

> <E_conf>
-89.53184

> <E_score1>
-10.22996

> <E_refine>
-24.70147

> <E_score2>
-6.286805

>  <$File>
outputs/pdb_4j58_cleaned.pdb_2024_06_17__22_47_40_V2_BS398_MIN1_/SDF/sdf_db.sdf

> <Rec_index>
1

>  <PLIF_raw>
[[20,20],[823,826],[54,54],[7,7],[1.352342397,4.423483177]]

> <FP:PLIF>
1 16

>  <PLIF_ligidx>
[[20,20],20]

$$$$
135
  MOE2022           3D

 42 43  0  0  1  0  0  0  0  0999 V2000
    3.3260   16.2570   21.1090 O   0  0  0  0  0  0  0  0  0  0  0  0
    2.1900   15.7140   21.1840 C   0  0  0  0  0  0  0  0  0  0  0  0
    1.8380   15.0740   22.2140 O   0  5  0  0  0  0  0  0  0  0  0  0
    1.2750   15.8100   20.0380 C   0  0  0  0  0  0  0  0  0  0  0  0
    0.0660   15.5800   20.1060 O   0  0  0  0  0  0  0  0  0  0  0  0
    1.8230   16.1790   18.8340 N   0  0  0  0  0  0  0  0  0  0  0  0
    1.0850   16.6130   17.6550 C   0  0  0  0  0  0  0  0  0  0  0  0
    1.8500   17.7130   16.9430 C   0  0  0  0  0  0  0  0  0  0  0  0
    2.4800   17.5280   15.7010 C   0  0  0  0  0  0  0  0  0  0  0  0
    3.2390   18.5910   15.1800 C   0  0  0  0  0  0  0  0  0  0  0  0
    1.9720   18.9300   17.6060 C   0  0  0  0  0  0  0  0  0  0  0  0
    3.7420   18.4800   13.9220 O   0  0  0  0  0  0  0  0  0  0  0  0
    2.7710   19.9470   17.1030 C   0  0  0  0  0  0  0  0  0  0  0  0
    3.4730   19.7710   15.9070 C   0  0  0  0  0  0  0  0  0  0  0  0
    4.4360   20.7770   15.4530 C   0  0  0  0  0  0  0  0  0  0  0  0
    5.4420   21.2020   16.3110 N   0  0  0  0  0  0  0  0  0  0  0  0
    5.7960   20.5850   17.5890 C   0  0  0  0  0  0  0  0  0  0  0  0
    2.3680   16.2700   14.9690 C   0  0  0  0  0  0  0  0  0  0  0  0
    3.3970   15.5580   14.8180 O   0  0  0  0  0  0  0  0  0  0  0  0
    6.4960   22.1370   15.9520 C   0  0  0  0  0  0  0  0  0  0  0  0
    1.2490   15.9190   14.5080 O   0  5  0  0  0  0  0  0  0  0  0  0
    7.7210   21.7970   16.8010 C   0  0  0  0  0  0  0  0  0  0  0  0
    7.1120   21.2100   18.0860 C   0  0  2  0  0  0  0  0  0  0  0  0
    8.0430   20.2010   18.7680 C   0  0  0  0  0  0  0  0  0  0  0  0
    6.8400   22.2520   19.0060 O   0  0  0  0  0  0  0  0  0  0  0  0
    4.4230   21.2390   14.3120 O   0  0  0  0  0  0  0  0  0  0  0  0
    2.8480   16.2910   18.7970 H   0  0  0  0  0  0  0  0  0  0  0  0
    0.8940   15.7680   17.0110 H   0  0  0  0  0  0  0  0  0  0  0  0
    0.1090   16.9810   17.9400 H   0  0  0  0  0  0  0  0  0  0  0  0
    1.4650   19.0680   18.5220 H   0  0  0  0  0  0  0  0  0  0  0  0
    4.1180   19.3370   13.6350 H   0  0  0  0  0  0  0  0  0  0  0  0
    2.8580   20.8550   17.6420 H   0  0  0  0  0  0  0  0  0  0  0  0
    5.0170   20.7450   18.3340 H   0  0  0  0  0  0  0  0  0  0  0  0
    5.9290   19.5130   17.4470 H   0  0  0  0  0  0  0  0  0  0  0  0
    6.7510   22.0800   14.8930 H   0  0  0  0  0  0  0  0  0  0  0  0
    6.1670   23.1500   16.1880 H   0  0  0  0  0  0  0  0  0  0  0  0
    8.3090   21.0360   16.2870 H   0  0  0  0  0  0  0  0  0  0  0  0
    8.3340   22.6780   16.9960 H   0  0  0  0  0  0  0  0  0  0  0  0
    7.5520   19.7750   19.6440 H   0  0  0  0  0  0  0  0  0  0  0  0
    8.2930   19.3970   18.0760 H   0  0  0  0  0  0  0  0  0  0  0  0
    8.9640   20.6970   19.0740 H   0  0  0  0  0  0  0  0  0  0  0  0
    7.6790   22.6160   19.2970 H   0  0  0  0  0  0  0  0  0  0  0  0
  1  2  2  0  0  0  0
  2  3  1  0  0  0  0
  2  4  1  0  0  0  0
  4  5  2  0  0  0  0
  4  6  1  0  0  0  0
  6  7  1  0  0  0  0
  6 27  1  0  0  0  0
  7  8  1  0  0  0  0
  7 28  1  0  0  0  0
  7 29  1  0  0  0  0
  8  9  2  0  0  0  0
  8 11  1  0  0  0  0
  9 10  1  0  0  0  0
  9 18  1  0  0  0  0
 10 12  1  0  0  0  0
 10 14  2  0  0  0  0
 11 13  2  0  0  0  0
 11 30  1  0  0  0  0
 12 31  1  0  0  0  0
 13 14  1  0  0  0  0
 13 32  1  0  0  0  0
 14 15  1  0  0  0  0
 15 16  1  0  0  0  0
 15 26  2  0  0  0  0
 16 17  1  0  0  0  0
 16 20  1  0  0  0  0
 17 23  1  0  0  0  0
 17 33  1  0  0  0  0
 17 34  1  0  0  0  0
 18 19  2  0  0  0  0
 18 21  1  0  0  0  0
 20 22  1  0  0  0  0
 20 35  1  0  0  0  0
 20 36  1  0  0  0  0
 22 23  1  0  0  0  0
 22 37  1  0  0  0  0
 22 38  1  0  0  0  0
 23 24  1  0  0  0  0
 23 25  1  0  0  0  0
 24 39  1  0  0  0  0
 24 40  1  0  0  0  0
 24 41  1  0  0  0  0
 25 42  1  0  0  0  0
M  CHG  1   3  -1
M  CHG  1  21  -1
M  END
> <rseq>
1

> <mseq>
136

> <S>
-6.442566

> <rmsd_refine>
1.430363

> <E_conf>
-44.52155

> <E_score1>
-10.78022

> <E_refine>
-35.02436

> <E_score2>
-6.442566

>  <$File>
outputs/pdb_4j58_cleaned.pdb_2024_06_17__22_47_40_V2_BS398_MIN1_/SDF/sdf_db.sdf

> <Rec_index>
1

>  <PLIF_raw>
[[3,5,3,3],[1206,1212,1206,1212],[81,81,81,81],[2,2,7,7],[0.6,0.8,5.175405685,3.671623592]]

> <FP:PLIF>
17 24 25

>  <PLIF_ligidx>
[[3,5],[3,3],[3,3]]

$$$$
136
  MOE2022           3D

 47 48  0  0  1  0  0  0  0  0999 V2000
    3.3350   17.4190   19.3570 O   0  0  0  0  0  0  0  0  0  0  0  0
    2.4260   17.7720   18.6090 C   0  0  0  0  0  0  0  0  0  0  0  0
    2.6320   18.8730   17.8130 N   0  0  0  0  0  0  0  0  0  0  0  0
    1.1500   17.0550   18.5090 C   0  0  0  0  0  0  0  0  0  0  0  0
    0.1240   17.4890   17.6520 C   0  0  0  0  0  0  0  0  0  0  0  0
   -1.0580   16.7660   17.5400 C   0  0  0  0  0  0  0  0  0  0  0  0
    0.9480   15.8830   19.2540 C   0  0  0  0  0  0  0  0  0  0  0  0
    3.9580   19.2280   17.3030 C   0  0  1  0  0  0  0  0  0  0  0  0
   -0.2350   15.1620   19.1340 C   0  0  0  0  0  0  0  0  0  0  0  0
   -1.2390   15.6020   18.2790 C   0  0  0  0  0  0  0  0  0  0  0  0
    3.8790   19.5880   15.8220 C   0  0  0  0  0  0  0  0  0  0  0  0
    3.5520   18.6020   14.8770 C   0  0  0  0  0  0  0  0  0  0  0  0
    3.3270   17.3080   15.2740 O   0  0  0  0  0  0  0  0  0  0  0  0
    3.4490   18.8860   13.5160 C   0  0  0  0  0  0  0  0  0  0  0  0
    3.7010   20.1850   13.0790 C   0  0  0  0  0  0  0  0  0  0  0  0
    4.7200   20.2220   18.1720 C   0  0  0  0  0  0  0  0  0  0  0  0
    3.6300   20.5210   11.7360 O   0  0  0  0  0  0  0  0  0  0  0  0
    4.0390   21.1790   14.0060 C   0  0  0  0  0  0  0  0  0  0  0  0
    4.3010   22.4710   13.6060 O   0  0  0  0  0  0  0  0  0  0  0  0
    5.5090   22.7640   12.8720 C   0  0  0  0  0  0  0  0  0  0  0  0
    6.0270   19.9470   18.3540 O   0  0  0  0  0  0  0  0  0  0  0  0
    3.2980   19.6030   10.6710 C   0  0  0  0  0  0  0  0  0  0  0  0
    4.1130   20.8890   15.3670 C   0  0  0  0  0  0  0  0  0  0  0  0
    4.2430   21.2660   18.6250 O   0  0  0  0  0  0  0  0  0  0  0  0
    6.9350   20.8050   19.0850 C   0  0  0  0  0  0  0  0  0  0  0  0
    8.3850   20.5620   18.6770 C   0  0  0  0  0  0  0  0  0  0  0  0
    1.8400   19.2150   17.2490 H   0  0  0  0  0  0  0  0  0  0  0  0
    0.2370   18.3700   17.0770 H   0  0  0  0  0  0  0  0  0  0  0  0
   -1.8240   17.1030   16.8900 H   0  0  0  0  0  0  0  0  0  0  0  0
    1.7060   15.5310   19.9050 H   0  0  0  0  0  0  0  0  0  0  0  0
    4.5540   18.3310   17.3240 H   0  0  0  0  0  0  0  0  0  0  0  0
   -0.3730   14.2720   19.6870 H   0  0  0  0  0  0  0  0  0  0  0  0
   -2.1390   15.0500   18.1890 H   0  0  0  0  0  0  0  0  0  0  0  0
    3.0330   16.7560   14.5230 H   0  0  0  0  0  0  0  0  0  0  0  0
    3.1900   18.1200   12.8330 H   0  0  0  0  0  0  0  0  0  0  0  0
    5.5950   23.8400   12.7180 H   0  0  0  0  0  0  0  0  0  0  0  0
    6.3810   22.4230   13.4310 H   0  0  0  0  0  0  0  0  0  0  0  0
    5.4960   22.2760   11.8980 H   0  0  0  0  0  0  0  0  0  0  0  0
    4.0220   18.7880   10.6320 H   0  0  0  0  0  0  0  0  0  0  0  0
    2.3000   19.1900   10.8240 H   0  0  0  0  0  0  0  0  0  0  0  0
    3.3130   20.1250    9.7140 H   0  0  0  0  0  0  0  0  0  0  0  0
    4.3500   21.6690   16.0420 H   0  0  0  0  0  0  0  0  0  0  0  0
    6.6890   21.8490   18.8850 H   0  0  0  0  0  0  0  0  0  0  0  0
    6.8220   20.6090   20.1520 H   0  0  0  0  0  0  0  0  0  0  0  0
    9.0400   21.2380   19.2260 H   0  0  0  0  0  0  0  0  0  0  0  0
    8.6610   19.5310   18.8970 H   0  0  0  0  0  0  0  0  0  0  0  0
    8.4980   20.7440   17.6080 H   0  0  0  0  0  0  0  0  0  0  0  0
  1  2  2  0  0  0  0
  2  3  1  0  0  0  0
  2  4  1  0  0  0  0
  3  8  1  0  0  0  0
  3 27  1  0  0  0  0
  4  5  2  0  0  0  0
  4  7  1  0  0  0  0
  5  6  1  0  0  0  0
  5 28  1  0  0  0  0
  6 10  2  0  0  0  0
  6 29  1  0  0  0  0
  7  9  2  0  0  0  0
  7 30  1  0  0  0  0
  8 11  1  0  0  0  0
  8 16  1  0  0  0  0
  8 31  1  0  0  0  0
  9 10  1  0  0  0  0
  9 32  1  0  0  0  0
 10 33  1  0  0  0  0
 11 12  2  0  0  0  0
 11 23  1  0  0  0  0
 12 13  1  0  0  0  0
 12 14  1  0  0  0  0
 13 34  1  0  0  0  0
 14 15  2  0  0  0  0
 14 35  1  0  0  0  0
 15 17  1  0  0  0  0
 15 18  1  0  0  0  0
 16 21  1  0  0  0  0
 16 24  2  0  0  0  0
 17 22  1  0  0  0  0
 18 19  1  0  0  0  0
 18 23  2  0  0  0  0
 19 20  1  0  0  0  0
 20 36  1  0  0  0  0
 20 37  1  0  0  0  0
 20 38  1  0  0  0  0
 21 25  1  0  0  0  0
 22 39  1  0  0  0  0
 22 40  1  0  0  0  0
 22 41  1  0  0  0  0
 23 42  1  0  0  0  0
 25 26  1  0  0  0  0
 25 43  1  0  0  0  0
 25 44  1  0  0  0  0
 26 45  1  0  0  0  0
 26 46  1  0  0  0  0
 26 47  1  0  0  0  0
M  END
> <rseq>
1

> <mseq>
137

> <S>
-5.717747

> <rmsd_refine>
1.87647

> <E_conf>
21.92833

> <E_score1>
-9.401033

> <E_refine>
-26.65695

> <E_score2>
-5.717747

>  <$File>
outputs/pdb_4j58_cleaned.pdb_2024_06_17__22_47_40_V2_BS398_MIN1_/SDF/sdf_db.sdf

> <Rec_index>
1

>  <PLIF_raw>
[[],[],[],[],[]]

>  <PLIF_ligidx>
[]

$$$$
137
  MOE2022           3D

 48 50  0  0  0  0  0  0  0  0999 V2000
    6.1330   14.4470   10.1000 C   0  0  0  0  0  0  0  0  0  0  0  0
    5.8110   15.7250    9.6570 C   0  0  0  0  0  0  0  0  0  0  0  0
    4.5700   16.2750    9.9580 C   0  0  0  0  0  0  0  0  0  0  0  0
    3.6300   15.5480   10.7010 C   0  0  0  0  0  0  0  0  0  0  0  0
    3.9620   14.2550   11.1290 C   0  0  0  0  0  0  0  0  0  0  0  0
    5.2070   13.7120   10.8320 C   0  0  0  0  0  0  0  0  0  0  0  0
    2.3110   16.1210   10.9710 C   0  0  0  0  0  0  0  0  0  0  0  0
    1.7780   16.1230   12.2560 N   0  0  0  0  0  0  0  0  0  0  0  0
    1.6430   16.6110   10.0630 O   0  0  0  0  0  0  0  0  0  0  0  0
    2.6190   16.0760   13.4700 C   0  0  0  0  0  0  0  0  0  0  0  0
    0.3970   16.6000   12.4960 C   0  0  0  0  0  0  0  0  0  0  0  0
    1.9150   15.4100   14.6650 C   0  0  0  0  0  0  0  0  0  0  0  0
   -0.2800   15.9230   13.7000 C   0  0  0  0  0  0  0  0  0  0  0  0
    0.5680   15.9540   14.9030 N   0  0  0  0  0  0  0  0  0  0  0  0
    0.0780   16.3370   16.1490 C   0  0  0  0  0  0  0  0  0  0  0  0
   -1.1440   16.4140   16.2840 O   0  0  0  0  0  0  0  0  0  0  0  0
    0.9960   16.6740   17.2360 C   0  0  0  0  0  0  0  0  0  0  0  0
    2.0410   17.5750   16.9980 C   0  0  0  0  0  0  0  0  0  0  0  0
    0.8400   16.1510   18.5400 C   0  0  0  0  0  0  0  0  0  0  0  0
   -0.2330   15.2980   18.8270 N   0  0  0  0  0  0  0  0  0  0  0  0
    1.7470   16.4760   19.5650 C   0  0  0  0  0  0  0  0  0  0  0  0
    2.7900   17.3500   19.2920 C   0  0  0  0  0  0  0  0  0  0  0  0
    2.9240   17.9170   18.0210 C   0  0  0  0  0  0  0  0  0  0  0  0
    3.9660   18.8310   17.7970 N   0  0  0  0  0  0  0  0  0  0  0  0
    1.6050   15.9040   20.9640 C   0  0  0  0  0  0  0  0  0  0  0  0
    3.6150   19.9620   17.0350 O   0  0  0  0  0  0  0  0  0  0  0  0
    7.0800   14.0290    9.8780 H   0  0  0  0  0  0  0  0  0  0  0  0
    6.5090   16.2740    9.0830 H   0  0  0  0  0  0  0  0  0  0  0  0
    4.3310   17.2490    9.6130 H   0  0  0  0  0  0  0  0  0  0  0  0
    3.2580   13.6830   11.6770 H   0  0  0  0  0  0  0  0  0  0  0  0
    5.4530   12.7340   11.1580 H   0  0  0  0  0  0  0  0  0  0  0  0
    3.5510   15.5630   13.2940 H   0  0  0  0  0  0  0  0  0  0  0  0
    2.8930   17.0860   13.7450 H   0  0  0  0  0  0  0  0  0  0  0  0
    0.4160   17.6690   12.6570 H   0  0  0  0  0  0  0  0  0  0  0  0
   -0.2240   16.4440   11.6240 H   0  0  0  0  0  0  0  0  0  0  0  0
    1.8260   14.3520   14.4570 H   0  0  0  0  0  0  0  0  0  0  0  0
    2.5450   15.4740   15.5400 H   0  0  0  0  0  0  0  0  0  0  0  0
   -1.2360   16.3960   13.8730 H   0  0  0  0  0  0  0  0  0  0  0  0
   -0.5010   14.8950   13.4480 H   0  0  0  0  0  0  0  0  0  0  0  0
    2.1610   18.0010   16.0360 H   0  0  0  0  0  0  0  0  0  0  0  0
   -0.5660   15.3480   19.7990 H   0  0  0  0  0  0  0  0  0  0  0  0
   -0.9930   15.3380   18.1270 H   0  0  0  0  0  0  0  0  0  0  0  0
    3.4850   17.6030   20.0490 H   0  0  0  0  0  0  0  0  0  0  0  0
    4.4680   19.1120   18.6550 H   0  0  0  0  0  0  0  0  0  0  0  0
    0.7190   16.3130   21.4510 H   0  0  0  0  0  0  0  0  0  0  0  0
    1.5180   14.8200   20.9240 H   0  0  0  0  0  0  0  0  0  0  0  0
    2.4740   16.1430   21.5780 H   0  0  0  0  0  0  0  0  0  0  0  0
    2.6390   19.9580   16.9610 H   0  0  0  0  0  0  0  0  0  0  0  0
  1  2  1  0  0  0  0
  1  6  2  0  0  0  0
  1 27  1  0  0  0  0
  2  3  2  0  0  0  0
  2 28  1  0  0  0  0
  3  4  1  0  0  0  0
  3 29  1  0  0  0  0
  4  5  2  0  0  0  0
  4  7  1  0  0  0  0
  5  6  1  0  0  0  0
  5 30  1  0  0  0  0
  6 31  1  0  0  0  0
  7  8  1  0  0  0  0
  7  9  2  0  0  0  0
  8 10  1  0  0  0  0
  8 11  1  0  0  0  0
 10 12  1  0  0  0  0
 10 32  1  0  0  0  0
 10 33  1  0  0  0  0
 11 13  1  0  0  0  0
 11 34  1  0  0  0  0
 11 35  1  0  0  0  0
 12 14  1  0  0  0  0
 12 36  1  0  0  0  0
 12 37  1  0  0  0  0
 13 14  1  0  0  0  0
 13 38  1  0  0  0  0
 13 39  1  0  0  0  0
 14 15  1  0  0  0  0
 15 16  2  0  0  0  0
 15 17  1  0  0  0  0
 17 18  1  0  0  0  0
 17 19  2  0  0  0  0
 18 23  2  0  0  0  0
 18 40  1  0  0  0  0
 19 20  1  0  0  0  0
 19 21  1  0  0  0  0
 20 41  1  0  0  0  0
 20 42  1  0  0  0  0
 21 22  2  0  0  0  0
 21 25  1  0  0  0  0
 22 23  1  0  0  0  0
 22 43  1  0  0  0  0
 23 24  1  0  0  0  0
 24 26  1  0  0  0  0
 24 44  1  0  0  0  0
 25 45  1  0  0  0  0
 25 46  1  0  0  0  0
 25 47  1  0  0  0  0
 26 48  1  0  0  0  0
M  END
> <rseq>
1

> <mseq>
138

> <S>
-5.78959

> <rmsd_refine>
1.064429

> <E_conf>
40.56866

> <E_score1>
-9.701583

> <E_refine>
-27.5822

> <E_score2>
-5.78959

>  <$File>
outputs/pdb_4j58_cleaned.pdb_2024_06_17__22_47_40_V2_BS398_MIN1_/SDF/sdf_db.sdf

> <Rec_index>
1

>  <PLIF_raw>
[[1,6,5,4,3,2],[820,820,820,820,820,820],[54,54,54,54,54,54],[10,10,10,10,10,10],[0.6,0.6,0.6,0.6,0.6,0.6]]

> <FP:PLIF>
2

>  <PLIF_ligidx>
[[1,6,5,4,3,2]]

$$$$
138
  MOE2022           3D

 45 47  0  0  0  0  0  0  0  0999 V2000
    6.1150   14.7310    9.8710 C   0  0  0  0  0  0  0  0  0  0  0  0
    5.8310   15.6750    8.8880 C   0  0  0  0  0  0  0  0  0  0  0  0
    4.5200   16.0830    8.6740 C   0  0  0  0  0  0  0  0  0  0  0  0
    3.4930   15.5490    9.4440 C   0  0  0  0  0  0  0  0  0  0  0  0
    5.0860   14.1980   10.6420 C   0  0  0  0  0  0  0  0  0  0  0  0
    3.7690   14.6060   10.4330 C   0  0  0  0  0  0  0  0  0  0  0  0
    2.6380   14.0720   11.2890 C   0  0  0  0  0  0  0  0  0  0  0  0
    2.1310   15.1310   12.2390 C   0  0  0  0  0  0  0  0  0  0  0  0
    1.2740   15.9320   11.9170 O   0  0  0  0  0  0  0  0  0  0  0  0
    2.7290   15.1920   13.4820 N   0  0  0  0  0  0  0  0  0  0  0  0
    2.6600   16.2890   14.3480 C   0  0  0  0  0  0  0  0  0  0  0  0
    2.4990   17.6050   13.9770 C   0  0  0  0  0  0  0  0  0  0  0  0
    2.4710   18.6080   14.9710 C   0  0  0  0  0  0  0  0  0  0  0  0
    2.5970   18.2770   16.2930 C   0  0  0  0  0  0  0  0  0  0  0  0
    2.6020   19.3500   17.3630 C   0  0  0  0  0  0  0  0  0  0  0  0
    2.8000   15.9480   15.6750 N   0  0  0  0  0  0  0  0  0  0  0  0
    2.7580   16.9010   16.6770 C   0  0  0  0  0  0  0  0  0  0  0  0
    3.9980   19.6300   17.8670 C   0  0  0  0  0  0  0  0  0  0  0  0
    4.6780   20.5890   17.4140 N   0  0  0  0  0  0  0  0  0  0  0  0
    2.8740   16.4850   17.8390 O   0  0  0  0  0  0  0  0  0  0  0  0
    6.0250   20.8900   17.7980 C   0  0  0  0  0  0  0  0  0  0  0  0
    6.5720   22.0970   17.3570 C   0  0  0  0  0  0  0  0  0  0  0  0
    6.8150   20.0220   18.5620 C   0  0  0  0  0  0  0  0  0  0  0  0
    8.1330   20.3510   18.8540 C   0  0  0  0  0  0  0  0  0  0  0  0
    8.6690   21.5570   18.4150 C   0  0  0  0  0  0  0  0  0  0  0  0
    7.8870   22.4310   17.6670 C   0  0  0  0  0  0  0  0  0  0  0  0
    7.1120   14.4160   10.0340 H   0  0  0  0  0  0  0  0  0  0  0  0
    6.6080   16.0850    8.2990 H   0  0  0  0  0  0  0  0  0  0  0  0
    4.3040   16.8000    7.9260 H   0  0  0  0  0  0  0  0  0  0  0  0
    2.4960   15.8690    9.2790 H   0  0  0  0  0  0  0  0  0  0  0  0
    5.3120   13.4840   11.3910 H   0  0  0  0  0  0  0  0  0  0  0  0
    1.8290   13.7450   10.6510 H   0  0  0  0  0  0  0  0  0  0  0  0
    2.9520   13.1940   11.8330 H   0  0  0  0  0  0  0  0  0  0  0  0
    3.2910   14.3780   13.7780 H   0  0  0  0  0  0  0  0  0  0  0  0
    2.4120   17.8830   12.9590 H   0  0  0  0  0  0  0  0  0  0  0  0
    2.3590   19.6220   14.6800 H   0  0  0  0  0  0  0  0  0  0  0  0
    2.1560   20.2580   16.9790 H   0  0  0  0  0  0  0  0  0  0  0  0
    1.9680   19.0430   18.1820 H   0  0  0  0  0  0  0  0  0  0  0  0
    2.8870   14.9560   15.9480 H   0  0  0  0  0  0  0  0  0  0  0  0
    4.3820   18.9620   18.5920 H   0  0  0  0  0  0  0  0  0  0  0  0
    5.9830   22.7630   16.7810 H   0  0  0  0  0  0  0  0  0  0  0  0
    6.4300   19.1040   18.9150 H   0  0  0  0  0  0  0  0  0  0  0  0
    8.7300   19.6780   19.4080 H   0  0  0  0  0  0  0  0  0  0  0  0
    9.6720   21.8060   18.6490 H   0  0  0  0  0  0  0  0  0  0  0  0
    8.2940   23.3480   17.3300 H   0  0  0  0  0  0  0  0  0  0  0  0
  1  2  1  0  0  0  0
  1  5  2  0  0  0  0
  1 27  1  0  0  0  0
  2  3  2  0  0  0  0
  2 28  1  0  0  0  0
  3  4  1  0  0  0  0
  3 29  1  0  0  0  0
  4  6  2  0  0  0  0
  4 30  1  0  0  0  0
  5  6  1  0  0  0  0
  5 31  1  0  0  0  0
  6  7  1  0  0  0  0
  7  8  1  0  0  0  0
  7 32  1  0  0  0  0
  7 33  1  0  0  0  0
  8  9  2  0  0  0  0
  8 10  1  0  0  0  0
 10 11  1  0  0  0  0
 10 34  1  0  0  0  0
 11 12  2  0  0  0  0
 11 16  1  0  0  0  0
 12 13  1  0  0  0  0
 12 35  1  0  0  0  0
 13 14  2  0  0  0  0
 13 36  1  0  0  0  0
 14 15  1  0  0  0  0
 14 17  1  0  0  0  0
 15 18  1  0  0  0  0
 15 37  1  0  0  0  0
 15 38  1  0  0  0  0
 16 17  1  0  0  0  0
 16 39  1  0  0  0  0
 17 20  2  0  0  0  0
 18 19  2  0  0  0  0
 18 40  1  0  0  0  0
 19 21  1  0  0  0  0
 21 22  1  0  0  0  0
 21 23  2  0  0  0  0
 22 26  2  0  0  0  0
 22 41  1  0  0  0  0
 23 24  1  0  0  0  0
 23 42  1  0  0  0  0
 24 25  2  0  0  0  0
 24 43  1  0  0  0  0
 25 26  1  0  0  0  0
 25 44  1  0  0  0  0
 26 45  1  0  0  0  0
M  END
> <rseq>
1

> <mseq>
139

> <S>
-6.097135

> <rmsd_refine>
1.135313

> <E_conf>
-95.60616

> <E_score1>
-9.30856

> <E_refine>
-31.5196

> <E_score2>
-6.097135

>  <$File>
outputs/pdb_4j58_cleaned.pdb_2024_06_17__22_47_40_V2_BS398_MIN1_/SDF/sdf_db.sdf

> <Rec_index>
1

>  <PLIF_raw>
[[10,16,20,1,5,6,4,3,2],[1056,1071,954,823,823,823,823,823,823],[70,71,62,54,54,54,54,54,54],[3,3,2,10,10,10,10,10,10],[0.5,1.4,0.6,1.4,1.4,1.4,1.4,1.4,1.4]]

> <FP:PLIF>
2 5 20 3 7

>  <PLIF_ligidx>
[[1,5,6,4,3,2],[1,5,6,4,3,2],20,10,16]

$$$$
139
  MOE2022           3D

 47 48  0  0  0  0  0  0  0  0999 V2000
    8.6450   21.0160   18.4630 C   0  0  0  0  0  0  0  0  0  0  0  0
    8.4900   22.2180   17.7840 C   0  0  0  0  0  0  0  0  0  0  0  0
    7.5360   20.2220   18.7330 C   0  0  0  0  0  0  0  0  0  0  0  0
    6.2640   20.6280   18.3300 C   0  0  0  0  0  0  0  0  0  0  0  0
    6.1130   21.8490   17.6730 C   0  0  0  0  0  0  0  0  0  0  0  0
    5.0590   19.7450   18.6050 C   0  0  0  0  0  0  0  0  0  0  0  0
    4.2870   19.2800   17.3690 C   0  0  0  0  0  0  0  0  0  0  0  0
    3.0540   18.5830   17.4450 N   0  0  0  0  0  0  0  0  0  0  0  0
    7.2240   22.6400   17.3960 C   0  0  0  0  0  0  0  0  0  0  0  0
    2.6310   17.8210   18.5790 C   0  0  0  0  0  0  0  0  0  0  0  0
    2.2330   18.6060   16.2010 C   0  0  0  0  0  0  0  0  0  0  0  0
    1.2460   17.3790   18.7280 C   0  0  0  0  0  0  0  0  0  0  0  0
    4.7120   19.5540   16.2600 O   0  0  0  0  0  0  0  0  0  0  0  0
    0.8000   16.5090   19.6730 C   0  0  0  0  0  0  0  0  0  0  0  0
    3.4800   17.5270   19.4100 O   0  0  0  0  0  0  0  0  0  0  0  0
    1.6000   15.9320   20.5980 O   0  0  0  0  0  0  0  0  0  0  0  0
    2.5230   17.4830   15.2270 C   0  0  0  0  0  0  0  0  0  0  0  0
    2.8200   17.6410   13.9260 C   0  0  0  0  0  0  0  0  0  0  0  0
    2.4620   16.0030   15.5570 C   0  0  0  0  0  0  0  0  0  0  0  0
    2.9670   16.3570   13.2860 C   0  0  0  0  0  0  0  0  0  0  0  0
    2.7630   15.3930   14.1990 C   0  0  0  0  0  0  0  0  0  0  0  0
    3.2560   16.1560   11.8110 C   0  0  0  0  0  0  0  0  0  0  0  0
    3.8820   14.8690   11.5060 N   0  0  0  0  0  0  0  0  0  0  0  0
    5.0430   14.7330   10.7950 C   0  0  0  0  0  0  0  0  0  0  0  0
    5.5430   13.4700   10.7770 N   0  0  0  0  0  0  0  0  0  0  0  0
    5.6150   15.6650   10.2260 O   0  0  0  0  0  0  0  0  0  0  0  0
    9.6080   20.7020   18.7720 H   0  0  0  0  0  0  0  0  0  0  0  0
    9.3380   22.8090   17.5600 H   0  0  0  0  0  0  0  0  0  0  0  0
    7.6670   19.3030   19.2450 H   0  0  0  0  0  0  0  0  0  0  0  0
    5.1500   22.1740   17.3710 H   0  0  0  0  0  0  0  0  0  0  0  0
    5.3970   18.8960   19.1720 H   0  0  0  0  0  0  0  0  0  0  0  0
    4.3900   20.2730   19.2640 H   0  0  0  0  0  0  0  0  0  0  0  0
    7.1050   23.5610   16.8860 H   0  0  0  0  0  0  0  0  0  0  0  0
    1.1770   18.6330   16.4070 H   0  0  0  0  0  0  0  0  0  0  0  0
    2.3750   19.5500   15.6910 H   0  0  0  0  0  0  0  0  0  0  0  0
    0.5350   17.7740   18.0560 H   0  0  0  0  0  0  0  0  0  0  0  0
   -0.2140   16.2120   19.7590 H   0  0  0  0  0  0  0  0  0  0  0  0
    2.5280   16.2280   20.4780 H   0  0  0  0  0  0  0  0  0  0  0  0
    2.9170   18.5730   13.4310 H   0  0  0  0  0  0  0  0  0  0  0  0
    3.2060   15.7270   16.2920 H   0  0  0  0  0  0  0  0  0  0  0  0
    1.4790   15.7230   15.9090 H   0  0  0  0  0  0  0  0  0  0  0  0
    2.7890   14.3520   14.0070 H   0  0  0  0  0  0  0  0  0  0  0  0
    2.3320   16.2390   11.2550 H   0  0  0  0  0  0  0  0  0  0  0  0
    3.8750   16.9690   11.4570 H   0  0  0  0  0  0  0  0  0  0  0  0
    3.4840   14.0300   11.9520 H   0  0  0  0  0  0  0  0  0  0  0  0
    6.4900   13.3140   10.4010 H   0  0  0  0  0  0  0  0  0  0  0  0
    5.1320   12.7550   11.3940 H   0  0  0  0  0  0  0  0  0  0  0  0
  1  2  1  0  0  0  0
  1  3  2  0  0  0  0
  1 27  1  0  0  0  0
  2  9  2  0  0  0  0
  2 28  1  0  0  0  0
  3  4  1  0  0  0  0
  3 29  1  0  0  0  0
  4  5  2  0  0  0  0
  4  6  1  0  0  0  0
  5  9  1  0  0  0  0
  5 30  1  0  0  0  0
  6  7  1  0  0  0  0
  6 31  1  0  0  0  0
  6 32  1  0  0  0  0
  7  8  1  0  0  0  0
  7 13  2  0  0  0  0
  8 10  1  0  0  0  0
  8 11  1  0  0  0  0
  9 33  1  0  0  0  0
 10 12  1  0  0  0  0
 10 15  2  0  0  0  0
 11 17  1  0  0  0  0
 11 34  1  0  0  0  0
 11 35  1  0  0  0  0
 12 14  2  0  0  0  0
 12 36  1  0  0  0  0
 14 16  1  0  0  0  0
 14 37  1  0  0  0  0
 16 38  1  0  0  0  0
 17 18  2  0  0  0  0
 17 19  1  0  0  0  0
 18 20  1  0  0  0  0
 18 39  1  0  0  0  0
 19 21  1  0  0  0  0
 19 40  1  0  0  0  0
 19 41  1  0  0  0  0
 20 21  2  0  0  0  0
 20 22  1  0  0  0  0
 21 42  1  0  0  0  0
 22 23  1  0  0  0  0
 22 43  1  0  0  0  0
 22 44  1  0  0  0  0
 23 24  1  0  0  0  0
 23 45  1  0  0  0  0
 24 25  1  0  0  0  0
 24 26  2  0  0  0  0
 25 46  1  0  0  0  0
 25 47  1  0  0  0  0
M  END
> <rseq>
1

> <mseq>
140

> <S>
-6.664809

> <rmsd_refine>
1.268504

> <E_conf>
-153.9368

> <E_score1>
-9.708782

> <E_refine>
-39.09076

> <E_score2>
-6.664809

>  <$File>
outputs/pdb_4j58_cleaned.pdb_2024_06_17__22_47_40_V2_BS398_MIN1_/SDF/sdf_db.sdf

> <Rec_index>
1

>  <PLIF_raw>
[[25,26],[1056,823],[70,54],[3,2],[1.9,2.1]]

> <FP:PLIF>
6 19 3 4

>  <PLIF_ligidx>
[26,26,25,25]

$$$$
140
  MOE2022           3D

 48 49  0  0  1  0  0  0  0  0999 V2000
    5.9660   14.6990    9.9130 C   0  0  0  0  0  0  0  0  0  0  0  0
    5.7660   15.6790    8.9470 C   0  0  0  0  0  0  0  0  0  0  0  0
    4.5870   16.4140    8.9380 C   0  0  0  0  0  0  0  0  0  0  0  0
    3.6080   16.1710    9.8960 C   0  0  0  0  0  0  0  0  0  0  0  0
    4.9860   14.4560   10.8710 C   0  0  0  0  0  0  0  0  0  0  0  0
    3.8030   15.1960   10.8750 C   0  0  0  0  0  0  0  0  0  0  0  0
    2.7420   14.9760   11.9420 C   0  0  0  0  0  0  0  0  0  0  0  0
    2.6440   16.1430   12.9040 C   0  0  0  0  0  0  0  0  0  0  0  0
    2.4200   17.2740   12.5180 O   0  0  0  0  0  0  0  0  0  0  0  0
    2.8130   15.8850   14.2510 N   0  0  0  0  0  0  0  0  0  0  0  0
    3.1140   16.8400   15.2430 C   0  0  0  0  0  0  0  0  0  0  0  0
    3.6460   18.0660   15.0150 C   0  0  0  0  0  0  0  0  0  0  0  0
    4.0410   18.9270   16.1020 C   0  0  0  0  0  0  0  0  0  0  0  0
    3.8130   18.6170   17.3940 C   0  0  0  0  0  0  0  0  0  0  0  0
    2.8710   16.3330   16.6740 N   0  3  0  0  0  0  0  0  0  0  0  0
    2.9980   17.3740   17.7820 C   0  0  2  0  0  0  0  0  0  0  0  0
    4.3330   19.5110   18.5080 C   0  0  0  0  0  0  0  0  0  0  0  0
    5.8210   19.8140   18.4900 C   0  0  0  0  0  0  0  0  0  0  0  0
    1.6640   17.7150   18.4220 C   0  0  0  0  0  0  0  0  0  0  0  0
    0.8110   18.3040   17.7240 O   0  0  0  0  0  0  0  0  0  0  0  0
    6.6130   19.2500   19.2440 O   0  0  0  0  0  0  0  0  0  0  0  0
    6.2730   20.7400   17.6170 O   0  0  0  0  0  0  0  0  0  0  0  0
    1.4570   17.2490   19.5650 O   0  5  0  0  0  0  0  0  0  0  0  0
    7.6860   21.0860   17.4820 C   0  0  0  0  0  0  0  0  0  0  0  0
    8.1900   21.8990   18.6810 C   0  0  0  0  0  0  0  0  0  0  0  0
    7.9130   21.8920   16.1990 C   0  0  0  0  0  0  0  0  0  0  0  0
    6.8630   14.1350    9.9190 H   0  0  0  0  0  0  0  0  0  0  0  0
    6.5070   15.8680    8.2150 H   0  0  0  0  0  0  0  0  0  0  0  0
    4.4330   17.1590    8.2010 H   0  0  0  0  0  0  0  0  0  0  0  0
    2.7130   16.7380    9.8810 H   0  0  0  0  0  0  0  0  0  0  0  0
    5.1480   13.7060   11.6000 H   0  0  0  0  0  0  0  0  0  0  0  0
    1.7820   14.8280   11.4680 H   0  0  0  0  0  0  0  0  0  0  0  0
    2.9360   14.0580   12.4800 H   0  0  0  0  0  0  0  0  0  0  0  0
    2.7510   14.8970   14.5410 H   0  0  0  0  0  0  0  0  0  0  0  0
    3.8450   18.4150   14.0370 H   0  0  0  0  0  0  0  0  0  0  0  0
    4.5510   19.8210   15.8480 H   0  0  0  0  0  0  0  0  0  0  0  0
    1.8900   15.9150   16.7310 H   0  0  0  0  0  0  0  0  0  0  0  0
    3.4850   15.4920   16.8870 H   0  0  0  0  0  0  0  0  0  0  0  0
    3.5520   16.9160   18.5890 H   0  0  0  0  0  0  0  0  0  0  0  0
    3.7830   20.4420   18.4910 H   0  0  0  0  0  0  0  0  0  0  0  0
    4.1270   19.0250   19.4500 H   0  0  0  0  0  0  0  0  0  0  0  0
    8.2480   20.1530   17.4150 H   0  0  0  0  0  0  0  0  0  0  0  0
    7.6280   22.8300   18.7630 H   0  0  0  0  0  0  0  0  0  0  0  0
    8.0730   21.3310   19.6030 H   0  0  0  0  0  0  0  0  0  0  0  0
    9.2500   22.1230   18.5510 H   0  0  0  0  0  0  0  0  0  0  0  0
    7.5590   21.3270   15.3400 H   0  0  0  0  0  0  0  0  0  0  0  0
    7.3690   22.8360   16.2520 H   0  0  0  0  0  0  0  0  0  0  0  0
    8.9770   22.0950   16.0750 H   0  0  0  0  0  0  0  0  0  0  0  0
  1  2  1  0  0  0  0
  1  5  2  0  0  0  0
  1 27  1  0  0  0  0
  2  3  2  0  0  0  0
  2 28  1  0  0  0  0
  3  4  1  0  0  0  0
  3 29  1  0  0  0  0
  4  6  2  0  0  0  0
  4 30  1  0  0  0  0
  5  6  1  0  0  0  0
  5 31  1  0  0  0  0
  6  7  1  0  0  0  0
  7  8  1  0  0  0  0
  7 32  1  0  0  0  0
  7 33  1  0  0  0  0
  8  9  2  0  0  0  0
  8 10  1  0  0  0  0
 10 11  1  0  0  0  0
 10 34  1  0  0  0  0
 11 12  2  0  0  0  0
 11 15  1  0  0  0  0
 12 13  1  0  0  0  0
 12 35  1  0  0  0  0
 13 14  2  0  0  0  0
 13 36  1  0  0  0  0
 14 16  1  0  0  0  0
 14 17  1  0  0  0  0
 15 16  1  0  0  0  0
 15 37  1  0  0  0  0
 15 38  1  0  0  0  0
 16 19  1  0  0  0  0
 16 39  1  0  0  0  0
 17 18  1  0  0  0  0
 17 40  1  0  0  0  0
 17 41  1  0  0  0  0
 18 21  2  0  0  0  0
 18 22  1  0  0  0  0
 19 20  2  0  0  0  0
 19 23  1  0  0  0  0
 22 24  1  0  0  0  0
 24 25  1  0  0  0  0
 24 26  1  0  0  0  0
 24 42  1  0  0  0  0
 25 43  1  0  0  0  0
 25 44  1  0  0  0  0
 25 45  1  0  0  0  0
 26 46  1  0  0  0  0
 26 47  1  0  0  0  0
 26 48  1  0  0  0  0
M  CHG  1  15   1
M  CHG  1  23  -1
M  END
> <rseq>
1

> <mseq>
141

> <S>
-6.540006

> <rmsd_refine>
1.267223

> <E_conf>
-115.2359

> <E_score1>
-10.17968

> <E_refine>
-32.67771

> <E_score2>
-6.540006

>  <$File>
outputs/pdb_4j58_cleaned.pdb_2024_06_17__22_47_40_V2_BS398_MIN1_/SDF/sdf_db.sdf

> <Rec_index>
1

>  <PLIF_raw>
[[1,5,6,4,3,2],[823,823,823,823,823,823],[54,54,54,54,54,54],[10,10,10,10,10,10],[1.5,1.5,1.5,1.5,1.5,1.5]]

> <FP:PLIF>
2 5

>  <PLIF_ligidx>
[[1,5,6,4,3,2],[1,5,6,4,3,2]]

$$$$
141
  MOE2022           3D

 52 53  0  0  1  0  0  0  0  0999 V2000
    6.3450   21.0180   18.5790 C   0  0  0  0  0  0  0  0  0  0  0  0
    5.7030   22.0990   17.9840 C   0  0  0  0  0  0  0  0  0  0  0  0
    5.6680   19.8160   18.7500 C   0  0  0  0  0  0  0  0  0  0  0  0
    4.3820   21.9780   17.5620 C   0  0  0  0  0  0  0  0  0  0  0  0
    4.3400   19.6760   18.3240 C   0  0  0  0  0  0  0  0  0  0  0  0
    3.7030   20.7760   17.7320 C   0  0  0  0  0  0  0  0  0  0  0  0
    3.6250   18.4140   18.5330 C   0  0  0  0  0  0  0  0  0  0  0  0
    2.8740   17.8430   17.5080 N   0  0  0  0  0  0  0  0  0  0  0  0
    3.4420   17.9250   16.1350 C   0  0  0  0  0  0  0  0  0  0  0  0
    3.6950   17.8210   19.6060 O   0  0  0  0  0  0  0  0  0  0  0  0
    1.9540   16.6960   17.8190 C   0  0  1  0  0  0  0  0  0  0  0  0
    1.0910   16.9970   18.9610 N   0  0  0  0  0  0  0  0  0  0  0  0
    1.0920   16.2650   16.6080 C   0  0  0  0  0  0  0  0  0  0  0  0
    1.8280   16.1560   15.2960 N   0  3  1  0  0  0  0  0  0  0  0  0
    0.9540   15.6600   14.1660 C   0  0  0  0  0  0  0  0  0  0  0  0
    1.5670   15.6730   12.7500 C   0  0  0  0  0  0  0  0  0  0  0  0
    2.7830   14.7510   12.5550 C   0  0  0  0  0  0  0  0  0  0  0  0
    0.5560   16.0190   19.7540 C   0  0  0  0  0  0  0  0  0  0  0  0
    3.5350   15.1210   11.2620 C   0  0  0  0  0  0  0  0  0  0  0  0
    4.6610   14.1270   10.9200 C   0  0  0  0  0  0  0  0  0  0  0  0
    0.5180   14.8290   19.4460 O   0  0  0  0  0  0  0  0  0  0  0  0
    5.6490   14.6720    9.8850 C   0  0  0  0  0  0  0  0  0  0  0  0
    0.0460   16.4590   20.9350 N   0  0  0  0  0  0  0  0  0  0  0  0
    2.5050   17.4610   15.0150 C   0  0  0  0  0  0  0  0  0  0  0  0
    6.2870   15.7040   10.1930 O   0  0  0  0  0  0  0  0  0  0  0  0
    5.7690   14.0350    8.8170 O   0  5  0  0  0  0  0  0  0  0  0  0
    7.3500   21.1110   18.9020 H   0  0  0  0  0  0  0  0  0  0  0  0
    6.2190   23.0160   17.8530 H   0  0  0  0  0  0  0  0  0  0  0  0
    6.1650   19.0020   19.2080 H   0  0  0  0  0  0  0  0  0  0  0  0
    3.8920   22.8040   17.1150 H   0  0  0  0  0  0  0  0  0  0  0  0
    2.6930   20.6980   17.4210 H   0  0  0  0  0  0  0  0  0  0  0  0
    3.7700   18.9270   15.9020 H   0  0  0  0  0  0  0  0  0  0  0  0
    4.3340   17.3180   16.0910 H   0  0  0  0  0  0  0  0  0  0  0  0
    2.5750   15.8500   18.0850 H   0  0  0  0  0  0  0  0  0  0  0  0
    1.2020   17.9350   19.3750 H   0  0  0  0  0  0  0  0  0  0  0  0
    0.5890   15.3420   16.8650 H   0  0  0  0  0  0  0  0  0  0  0  0
    0.2830   16.9790   16.5260 H   0  0  0  0  0  0  0  0  0  0  0  0
    2.5550   15.4650   15.4240 H   0  0  0  0  0  0  0  0  0  0  0  0
    0.6080   14.6550   14.3670 H   0  0  0  0  0  0  0  0  0  0  0  0
    0.0400   16.2380   14.1210 H   0  0  0  0  0  0  0  0  0  0  0  0
    0.7910   15.3680   12.0470 H   0  0  0  0  0  0  0  0  0  0  0  0
    1.8410   16.6990   12.5010 H   0  0  0  0  0  0  0  0  0  0  0  0
    3.4650   14.8530   13.3990 H   0  0  0  0  0  0  0  0  0  0  0  0
    2.4430   13.7160   12.5020 H   0  0  0  0  0  0  0  0  0  0  0  0
    2.8360   15.1500   10.4250 H   0  0  0  0  0  0  0  0  0  0  0  0
    3.9610   16.1170   11.3860 H   0  0  0  0  0  0  0  0  0  0  0  0
    5.2290   13.8820   11.8120 H   0  0  0  0  0  0  0  0  0  0  0  0
    4.2190   13.2030   10.5470 H   0  0  0  0  0  0  0  0  0  0  0  0
   -0.0010   17.4740   21.1100 H   0  0  0  0  0  0  0  0  0  0  0  0
   -0.6140   15.8530   21.4410 H   0  0  0  0  0  0  0  0  0  0  0  0
    1.7750   18.2430   14.8510 H   0  0  0  0  0  0  0  0  0  0  0  0
    3.0740   17.4300   14.0960 H   0  0  0  0  0  0  0  0  0  0  0  0
  1  2  2  0  0  0  0
  1  3  1  0  0  0  0
  1 27  1  0  0  0  0
  2  4  1  0  0  0  0
  2 28  1  0  0  0  0
  3  5  2  0  0  0  0
  3 29  1  0  0  0  0
  4  6  2  0  0  0  0
  4 30  1  0  0  0  0
  5  6  1  0  0  0  0
  5  7  1  0  0  0  0
  6 31  1  0  0  0  0
  7  8  1  0  0  0  0
  7 10  2  0  0  0  0
  8  9  1  0  0  0  0
  8 11  1  0  0  0  0
  9 24  1  0  0  0  0
  9 32  1  0  0  0  0
  9 33  1  0  0  0  0
 11 12  1  0  0  0  0
 11 13  1  0  0  0  0
 11 34  1  0  0  0  0
 12 18  1  0  0  0  0
 12 35  1  0  0  0  0
 13 14  1  0  0  0  0
 13 36  1  0  0  0  0
 13 37  1  0  0  0  0
 14 15  1  0  0  0  0
 14 24  1  0  0  0  0
 14 38  1  0  0  0  0
 15 16  1  0  0  0  0
 15 39  1  0  0  0  0
 15 40  1  0  0  0  0
 16 17  1  0  0  0  0
 16 41  1  0  0  0  0
 16 42  1  0  0  0  0
 17 19  1  0  0  0  0
 17 43  1  0  0  0  0
 17 44  1  0  0  0  0
 18 21  2  0  0  0  0
 18 23  1  0  0  0  0
 19 20  1  0  0  0  0
 19 45  1  0  0  0  0
 19 46  1  0  0  0  0
 20 22  1  0  0  0  0
 20 47  1  0  0  0  0
 20 48  1  0  0  0  0
 22 25  2  0  0  0  0
 22 26  1  0  0  0  0
 23 49  1  0  0  0  0
 23 50  1  0  0  0  0
 24 51  1  0  0  0  0
 24 52  1  0  0  0  0
M  CHG  1  14   1
M  CHG  1  26  -1
M  END
> <rseq>
1

> <mseq>
142

> <S>
-6.177728

> <rmsd_refine>
1.75456

> <E_conf>
-192.6423

> <E_score1>
-10.20028

> <E_refine>
-33.07467

> <E_score2>
-6.177728

>  <$File>
outputs/pdb_4j58_cleaned.pdb_2024_06_17__22_47_40_V2_BS398_MIN1_/SDF/sdf_db.sdf

> <Rec_index>
1

>  <PLIF_raw>
[[21,25,25],[1212,823,823],[81,54,54],[2,2,7],[3.1,7.9,4.76778008]]

> <FP:PLIF>
6 19 1 16 17 18

>  <PLIF_ligidx>
[25,25,25,25,21,21]

$$$$
142
  MOE2022           3D

 48 49  0  0  1  0  0  0  0  0999 V2000
    2.6210   16.4840   21.0610 O   0  0  0  0  0  0  0  0  0  0  0  0
    1.6260   15.9660   20.5140 C   0  0  0  0  0  0  0  0  0  0  0  0
    0.7030   15.3820   21.1270 O   0  5  0  0  0  0  0  0  0  0  0  0
    1.4940   16.0600   19.0050 C   0  0  1  0  0  0  0  0  0  0  0  0
    0.7520   17.2930   18.5090 C   0  0  0  0  0  0  0  0  0  0  0  0
    2.7350   16.1210   18.2480 N   0  0  0  0  0  0  0  0  0  0  0  0
    1.4380   17.6530   17.2790 N   0  0  0  0  0  0  0  0  0  0  0  0
    2.6280   16.9720   17.1920 C   0  0  0  0  0  0  0  0  0  0  0  0
    0.7840   18.3880   16.1940 C   0  0  0  0  0  0  0  0  0  0  0  0
    3.4550   17.0610   16.2820 O   0  0  0  0  0  0  0  0  0  0  0  0
    0.7960   17.6800   14.8240 C   0  0  0  0  0  0  0  0  0  0  0  0
    0.5960   16.1500   14.8710 C   0  0  1  0  0  0  0  0  0  0  0  0
   -0.5970   15.7060   15.6590 N   0  3  0  0  0  0  0  0  0  0  0  0
    0.7200   15.5460   13.4720 C   0  0  0  0  0  0  0  0  0  0  0  0
    1.9900   15.1920   12.9990 C   0  0  0  0  0  0  0  0  0  0  0  0
   -0.3950   15.3690   12.6250 C   0  0  0  0  0  0  0  0  0  0  0  0
   -1.7340   15.7750   13.0440 C   0  0  0  0  0  0  0  0  0  0  0  0
    3.0960   15.3840   13.7940 O   0  0  0  0  0  0  0  0  0  0  0  0
    2.1780   14.6550   11.7210 C   0  0  0  0  0  0  0  0  0  0  0  0
   -0.2110   14.8040   11.3500 C   0  0  0  0  0  0  0  0  0  0  0  0
   -2.5440   14.9020   13.4450 O   0  0  0  0  0  0  0  0  0  0  0  0
    3.5550   14.3220   11.1670 C   0  0  0  0  0  0  0  0  0  0  0  0
   -1.3930   14.5760   10.4240 C   0  0  0  0  0  0  0  0  0  0  0  0
   -2.0170   16.9980   13.0970 O   0  5  0  0  0  0  0  0  0  0  0  0
    1.0640   14.4580   10.9130 C   0  0  0  0  0  0  0  0  0  0  0  0
    4.1770   15.4920   10.4020 C   0  0  0  0  0  0  0  0  0  0  0  0
    0.9270   15.2050   18.6680 H   0  0  0  0  0  0  0  0  0  0  0  0
   -0.2970   17.0840   18.3540 H   0  0  0  0  0  0  0  0  0  0  0  0
    0.8430   18.1000   19.2210 H   0  0  0  0  0  0  0  0  0  0  0  0
    3.4360   15.3640   18.2740 H   0  0  0  0  0  0  0  0  0  0  0  0
   -0.2430   18.5820   16.4740 H   0  0  0  0  0  0  0  0  0  0  0  0
    1.2370   19.3660   16.0970 H   0  0  0  0  0  0  0  0  0  0  0  0
    0.0290   18.1330   14.1960 H   0  0  0  0  0  0  0  0  0  0  0  0
    1.7570   17.8780   14.3510 H   0  0  0  0  0  0  0  0  0  0  0  0
    1.4590   15.7760   15.4020 H   0  0  0  0  0  0  0  0  0  0  0  0
   -1.4500   16.0310   15.2180 H   0  0  0  0  0  0  0  0  0  0  0  0
   -0.6530   14.6990   15.6930 H   0  0  0  0  0  0  0  0  0  0  0  0
   -0.5680   16.0670   16.6000 H   0  0  0  0  0  0  0  0  0  0  0  0
    2.8930   15.8630   14.6220 H   0  0  0  0  0  0  0  0  0  0  0  0
    4.2290   14.0390   11.9730 H   0  0  0  0  0  0  0  0  0  0  0  0
    3.4730   13.4650   10.4970 H   0  0  0  0  0  0  0  0  0  0  0  0
   -1.9230   15.5110   10.2430 H   0  0  0  0  0  0  0  0  0  0  0  0
   -1.0740   14.1800    9.4600 H   0  0  0  0  0  0  0  0  0  0  0  0
   -2.0890   13.8630   10.8660 H   0  0  0  0  0  0  0  0  0  0  0  0
    1.1910   14.0480    9.9440 H   0  0  0  0  0  0  0  0  0  0  0  0
    4.2470   16.3620   11.0550 H   0  0  0  0  0  0  0  0  0  0  0  0
    5.1740   15.2170   10.0580 H   0  0  0  0  0  0  0  0  0  0  0  0
    3.5540   15.7410    9.5420 H   0  0  0  0  0  0  0  0  0  0  0  0
  1  2  2  0  0  0  0
  2  3  1  0  0  0  0
  2  4  1  0  0  0  0
  4  5  1  0  0  0  0
  4  6  1  0  0  0  0
  4 27  1  0  0  0  0
  5  7  1  0  0  0  0
  5 28  1  0  0  0  0
  5 29  1  0  0  0  0
  6  8  1  0  0  0  0
  6 30  1  0  0  0  0
  7  8  1  0  0  0  0
  7  9  1  0  0  0  0
  8 10  2  0  0  0  0
  9 11  1  0  0  0  0
  9 31  1  0  0  0  0
  9 32  1  0  0  0  0
 11 12  1  0  0  0  0
 11 33  1  0  0  0  0
 11 34  1  0  0  0  0
 12 13  1  0  0  0  0
 12 14  1  0  0  0  0
 12 35  1  0  0  0  0
 13 36  1  0  0  0  0
 13 37  1  0  0  0  0
 13 38  1  0  0  0  0
 14 15  1  0  0  0  0
 14 16  2  0  0  0  0
 15 18  1  0  0  0  0
 15 19  2  0  0  0  0
 16 17  1  0  0  0  0
 16 20  1  0  0  0  0
 17 21  2  0  0  0  0
 17 24  1  0  0  0  0
 18 39  1  0  0  0  0
 19 22  1  0  0  0  0
 19 25  1  0  0  0  0
 20 23  1  0  0  0  0
 20 25  2  0  0  0  0
 22 26  1  0  0  0  0
 22 40  1  0  0  0  0
 22 41  1  0  0  0  0
 23 42  1  0  0  0  0
 23 43  1  0  0  0  0
 23 44  1  0  0  0  0
 25 45  1  0  0  0  0
 26 46  1  0  0  0  0
 26 47  1  0  0  0  0
 26 48  1  0  0  0  0
M  CHG  1   3  -1
M  CHG  1  13   1
M  CHG  1  24  -1
M  END
> <rseq>
1

> <mseq>
143

> <S>
-5.055011

> <rmsd_refine>
1.916798

> <E_conf>
-253.9366

> <E_score1>
-7.335104

> <E_refine>
-29.93233

> <E_score2>
-5.055011

>  <$File>
outputs/pdb_4j58_cleaned.pdb_2024_06_17__22_47_40_V2_BS398_MIN1_/SDF/sdf_db.sdf

> <Rec_index>
1

>  <PLIF_raw>
[[6,3,3,10,3,3],[1617,1206,1212,954,1206,1212],[110,81,81,62,81,81],[1,2,2,2,7,7],[3,5.6,3.7,2.5,4.228409803,4.608557883]]

> <FP:PLIF>
20 23 17 18 24 25 26 38

>  <PLIF_ligidx>
[10,10,[3,3],[3,3],[3,3],[3,3],6,6]

$$$$
143
  MOE2022           3D

 48 49  0  0  1  0  0  0  0  0999 V2000
    6.0620   14.7220    9.9350 C   0  0  0  0  0  0  0  0  0  0  0  0
    5.7940   15.6380    8.9230 C   0  0  0  0  0  0  0  0  0  0  0  0
    4.4980   16.0960    8.7270 C   0  0  0  0  0  0  0  0  0  0  0  0
    3.4690   15.6440    9.5460 C   0  0  0  0  0  0  0  0  0  0  0  0
    5.0320   14.2700   10.7560 C   0  0  0  0  0  0  0  0  0  0  0  0
    3.7290   14.7320   10.5690 C   0  0  0  0  0  0  0  0  0  0  0  0
    2.5980   14.2890   11.4790 C   0  0  0  0  0  0  0  0  0  0  0  0
    2.1420   15.4160   12.3790 C   0  0  0  0  0  0  0  0  0  0  0  0
    1.5200   16.3690   11.9500 O   0  0  0  0  0  0  0  0  0  0  0  0
    2.4820   15.3550   13.7150 N   0  0  0  0  0  0  0  0  0  0  0  0
    2.5300   16.4700   14.5710 C   0  0  0  0  0  0  0  0  0  0  0  0
    2.8000   17.7330   14.1680 C   0  0  0  0  0  0  0  0  0  0  0  0
    2.8890   18.8170   15.1170 C   0  0  0  0  0  0  0  0  0  0  0  0
    2.8370   18.6200   16.4520 C   0  0  0  0  0  0  0  0  0  0  0  0
    2.2430   16.1620   16.0450 N   0  3  0  0  0  0  0  0  0  0  0  0
    2.7060   17.2080   17.0410 C   0  0  2  0  0  0  0  0  0  0  0  0
    3.0380   19.7930   17.3960 C   0  0  0  0  0  0  0  0  0  0  0  0
    4.4450   19.8550   17.9530 C   0  0  0  0  0  0  0  0  0  0  0  0
    1.9220   17.1540   18.3450 C   0  0  0  0  0  0  0  0  0  0  0  0
    0.6820   17.2970   18.2810 O   0  0  0  0  0  0  0  0  0  0  0  0
    4.7980   19.2890   18.9880 O   0  0  0  0  0  0  0  0  0  0  0  0
    5.3540   20.4820   17.1780 O   0  0  0  0  0  0  0  0  0  0  0  0
    2.5530   16.8590   19.3830 O   0  5  0  0  0  0  0  0  0  0  0  0
    6.7770   20.5020   17.4620 C   0  0  0  0  0  0  0  0  0  0  0  0
    7.1780   21.4790   18.5670 C   0  0  0  0  0  0  0  0  0  0  0  0
    8.6950   21.4120   18.7490 C   0  0  0  0  0  0  0  0  0  0  0  0
    7.0490   14.3660   10.0820 H   0  0  0  0  0  0  0  0  0  0  0  0
    6.5720   15.9870    8.2960 H   0  0  0  0  0  0  0  0  0  0  0  0
    4.2930   16.7920    7.9540 H   0  0  0  0  0  0  0  0  0  0  0  0
    2.4830   16.0020    9.3900 H   0  0  0  0  0  0  0  0  0  0  0  0
    5.2470   13.5750   11.5250 H   0  0  0  0  0  0  0  0  0  0  0  0
    1.7640   13.9560   10.8770 H   0  0  0  0  0  0  0  0  0  0  0  0
    2.8920   13.4290   12.0640 H   0  0  0  0  0  0  0  0  0  0  0  0
    2.7580   14.4350   14.0910 H   0  0  0  0  0  0  0  0  0  0  0  0
    2.9800   17.9630   13.1500 H   0  0  0  0  0  0  0  0  0  0  0  0
    3.0260   19.7930   14.7250 H   0  0  0  0  0  0  0  0  0  0  0  0
    1.1870   16.0660   16.1660 H   0  0  0  0  0  0  0  0  0  0  0  0
    2.5840   15.1960   16.3350 H   0  0  0  0  0  0  0  0  0  0  0  0
    3.7140   16.9600   17.3270 H   0  0  0  0  0  0  0  0  0  0  0  0
    2.8280   20.7180   16.8760 H   0  0  0  0  0  0  0  0  0  0  0  0
    2.3090   19.7490   18.1870 H   0  0  0  0  0  0  0  0  0  0  0  0
    7.0930   19.5060   17.7600 H   0  0  0  0  0  0  0  0  0  0  0  0
    7.3020   20.7720   16.5450 H   0  0  0  0  0  0  0  0  0  0  0  0
    6.8820   22.4930   18.2950 H   0  0  0  0  0  0  0  0  0  0  0  0
    6.6900   21.1970   19.5010 H   0  0  0  0  0  0  0  0  0  0  0  0
    9.0080   20.3820   18.9220 H   0  0  0  0  0  0  0  0  0  0  0  0
    9.1940   21.7980   17.8600 H   0  0  0  0  0  0  0  0  0  0  0  0
    8.9840   22.0080   19.6090 H   0  0  0  0  0  0  0  0  0  0  0  0
  1  2  1  0  0  0  0
  1  5  2  0  0  0  0
  1 27  1  0  0  0  0
  2  3  2  0  0  0  0
  2 28  1  0  0  0  0
  3  4  1  0  0  0  0
  3 29  1  0  0  0  0
  4  6  2  0  0  0  0
  4 30  1  0  0  0  0
  5  6  1  0  0  0  0
  5 31  1  0  0  0  0
  6  7  1  0  0  0  0
  7  8  1  0  0  0  0
  7 32  1  0  0  0  0
  7 33  1  0  0  0  0
  8  9  2  0  0  0  0
  8 10  1  0  0  0  0
 10 11  1  0  0  0  0
 10 34  1  0  0  0  0
 11 12  2  0  0  0  0
 11 15  1  0  0  0  0
 12 13  1  0  0  0  0
 12 35  1  0  0  0  0
 13 14  2  0  0  0  0
 13 36  1  0  0  0  0
 14 16  1  0  0  0  0
 14 17  1  0  0  0  0
 15 16  1  0  0  0  0
 15 37  1  0  0  0  0
 15 38  1  0  0  0  0
 16 19  1  0  0  0  0
 16 39  1  0  0  0  0
 17 18  1  0  0  0  0
 17 40  1  0  0  0  0
 17 41  1  0  0  0  0
 18 21  2  0  0  0  0
 18 22  1  0  0  0  0
 19 20  2  0  0  0  0
 19 23  1  0  0  0  0
 22 24  1  0  0  0  0
 24 25  1  0  0  0  0
 24 42  1  0  0  0  0
 24 43  1  0  0  0  0
 25 26  1  0  0  0  0
 25 44  1  0  0  0  0
 25 45  1  0  0  0  0
 26 46  1  0  0  0  0
 26 47  1  0  0  0  0
 26 48  1  0  0  0  0
M  CHG  1  15   1
M  CHG  1  23  -1
M  END
> <rseq>
1

> <mseq>
144

> <S>
-6.090526

> <rmsd_refine>
1.083998

> <E_conf>
-92.22964

> <E_score1>
-10.47588

> <E_refine>
-29.69505

> <E_score2>
-6.090526

>  <$File>
outputs/pdb_4j58_cleaned.pdb_2024_06_17__22_47_40_V2_BS398_MIN1_/SDF/sdf_db.sdf

> <Rec_index>
1

>  <PLIF_raw>
[[15,1,5,6,4,3,2],[1071,823,823,823,823,823,823],[71,54,54,54,54,54,54],[3,10,10,10,10,10,10],[3.6,1.3,1.3,1.3,1.3,1.3,1.3]]

> <FP:PLIF>
2 5 7 14

>  <PLIF_ligidx>
[[1,5,6,4,3,2],[1,5,6,4,3,2],15,15]

$$$$
120
  MOE2022           3D

 41 42  0  0  1  0  0  0  0  0999 V2000
    1.9510   15.3460   21.5710 O   0  0  0  0  0  0  0  0  0  0  0  0
    0.9710   15.9060   20.9960 C   0  0  0  0  0  0  0  0  0  0  0  0
   -0.0780   16.1770   21.6420 O   0  5  0  0  0  0  0  0  0  0  0  0
    1.0430   16.2190   19.5600 C   0  0  0  0  0  0  0  0  0  0  0  0
    0.0760   16.5960   18.8990 O   0  0  0  0  0  0  0  0  0  0  0  0
    2.2510   16.0680   18.9250 N   0  0  0  0  0  0  0  0  0  0  0  0
    2.4690   16.2840   17.4950 C   0  0  0  0  0  0  0  0  0  0  0  0
    3.0710   17.6230   17.1000 C   0  0  0  0  0  0  0  0  0  0  0  0
    3.2520   17.9430   15.7390 C   0  0  0  0  0  0  0  0  0  0  0  0
    3.8120   19.1930   15.4230 C   0  0  0  0  0  0  0  0  0  0  0  0
    3.4650   18.5310   18.0860 C   0  0  0  0  0  0  0  0  0  0  0  0
    3.8980   19.5670   14.1150 O   0  0  0  0  0  0  0  0  0  0  0  0
    4.0590   19.7360   17.7490 C   0  0  0  0  0  0  0  0  0  0  0  0
    4.2850   20.0670   16.4120 C   0  0  0  0  0  0  0  0  0  0  0  0
    5.0040   21.2900   16.0810 C   0  0  0  0  0  0  0  0  0  0  0  0
    6.3300   21.4260   16.4580 N   0  0  0  0  0  0  0  0  0  0  0  0
    7.1410   20.4810   17.2210 C   0  0  0  0  0  0  0  0  0  0  0  0
    2.9010   17.0020   14.6690 C   0  0  0  0  0  0  0  0  0  0  0  0
    3.3420   15.8230   14.7060 O   0  0  0  0  0  0  0  0  0  0  0  0
    7.0020   22.7100   16.4880 C   0  0  0  0  0  0  0  0  0  0  0  0
    8.0070   21.2930   18.1810 C   0  0  1  0  0  0  0  0  0  0  0  0
    2.2130   17.4000   13.6920 O   0  5  0  0  0  0  0  0  0  0  0  0
    8.2590   22.5560   17.3430 C   0  0  0  0  0  0  0  0  0  0  0  0
    4.4780   22.2240   15.4800 O   0  0  0  0  0  0  0  0  0  0  0  0
    7.2510   21.5910   19.4860 C   0  0  0  0  0  0  0  0  0  0  0  0
    3.0510   15.7260   19.4820 H   0  0  0  0  0  0  0  0  0  0  0  0
    3.1400   15.5100   17.1520 H   0  0  0  0  0  0  0  0  0  0  0  0
    1.5490   16.1270   16.9490 H   0  0  0  0  0  0  0  0  0  0  0  0
    3.3280   18.3040   19.1100 H   0  0  0  0  0  0  0  0  0  0  0  0
    3.3870   18.9310   13.5680 H   0  0  0  0  0  0  0  0  0  0  0  0
    4.3550   20.4050   18.5160 H   0  0  0  0  0  0  0  0  0  0  0  0
    6.5590   19.7470   17.7730 H   0  0  0  0  0  0  0  0  0  0  0  0
    7.8030   19.9510   16.5350 H   0  0  0  0  0  0  0  0  0  0  0  0
    7.2680   23.0370   15.4820 H   0  0  0  0  0  0  0  0  0  0  0  0
    6.3480   23.4530   16.9470 H   0  0  0  0  0  0  0  0  0  0  0  0
    8.9410   20.7750   18.4060 H   0  0  0  0  0  0  0  0  0  0  0  0
    9.1200   22.3960   16.6930 H   0  0  0  0  0  0  0  0  0  0  0  0
    8.4020   23.4320   17.9650 H   0  0  0  0  0  0  0  0  0  0  0  0
    7.0480   20.6580   20.0120 H   0  0  0  0  0  0  0  0  0  0  0  0
    7.8590   22.2300   20.1250 H   0  0  0  0  0  0  0  0  0  0  0  0
    6.3070   22.0950   19.2740 H   0  0  0  0  0  0  0  0  0  0  0  0
  1  2  2  0  0  0  0
  2  3  1  0  0  0  0
  2  4  1  0  0  0  0
  4  5  2  0  0  0  0
  4  6  1  0  0  0  0
  6  7  1  0  0  0  0
  6 26  1  0  0  0  0
  7  8  1  0  0  0  0
  7 27  1  0  0  0  0
  7 28  1  0  0  0  0
  8  9  2  0  0  0  0
  8 11  1  0  0  0  0
  9 10  1  0  0  0  0
  9 18  1  0  0  0  0
 10 12  1  0  0  0  0
 10 14  2  0  0  0  0
 11 13  2  0  0  0  0
 11 29  1  0  0  0  0
 12 30  1  0  0  0  0
 13 14  1  0  0  0  0
 13 31  1  0  0  0  0
 14 15  1  0  0  0  0
 15 16  1  0  0  0  0
 15 24  2  0  0  0  0
 16 17  1  0  0  0  0
 16 20  1  0  0  0  0
 17 21  1  0  0  0  0
 17 32  1  0  0  0  0
 17 33  1  0  0  0  0
 18 19  2  0  0  0  0
 18 22  1  0  0  0  0
 20 23  1  0  0  0  0
 20 34  1  0  0  0  0
 20 35  1  0  0  0  0
 21 23  1  0  0  0  0
 21 25  1  0  0  0  0
 21 36  1  0  0  0  0
 23 37  1  0  0  0  0
 23 38  1  0  0  0  0
 25 39  1  0  0  0  0
 25 40  1  0  0  0  0
 25 41  1  0  0  0  0
M  CHG  1   3  -1
M  CHG  1  22  -1
M  END
> <rseq>
1

> <mseq>
121

> <S>
-6.236381

> <rmsd_refine>
1.23068

> <E_conf>
-22.35888

> <E_score1>
-10.24704

> <E_refine>
-39.34413

> <E_score2>
-6.236381

>  <$File>
outputs/pdb_4j58_cleaned.pdb_2024_06_17__22_47_40_V2_BS398_MIN1_/SDF/sdf_db.sdf

> <Rec_index>
1

>  <PLIF_raw>
[[6,3,1,1,3,3,19],[1617,1206,1206,1212,1206,1212,823],[110,81,81,81,81,81,54],[1,2,7,7,7,7,7],[1.4,6.3,2.184470429,2.280842656,5.080323184,1.525989044,0.6447800465]]

> <FP:PLIF>
1 17 18 24 25 26

>  <PLIF_ligidx>
[19,3,3,[1,1,3,3],3,6]

$$$$
121
  MOE2022           3D

 36 38  0  0  1  0  0  0  0  0999 V2000
    6.6230   21.3460   19.3360 C   0  0  0  0  0  0  0  0  0  0  0  0
    5.9400   22.4980   18.9430 C   0  0  0  0  0  0  0  0  0  0  0  0
    6.0260   20.1030   19.1910 C   0  0  0  0  0  0  0  0  0  0  0  0
    4.6620   22.4020   18.4100 C   0  0  0  0  0  0  0  0  0  0  0  0
    4.0510   21.1480   18.2490 C   0  0  0  0  0  0  0  0  0  0  0  0
    4.7400   19.9960   18.6480 C   0  0  0  0  0  0  0  0  0  0  0  0
    4.1390   18.7390   18.5000 N   0  0  0  0  0  0  0  0  0  0  0  0
    2.7330   21.0020   17.6660 C   0  0  0  0  0  0  0  0  0  0  0  0
    2.3110   19.6910   17.3680 N   0  0  0  0  0  0  0  0  0  0  0  0
    1.9920   21.9460   17.3920 O   0  0  0  0  0  0  0  0  0  0  0  0
    3.0070   18.5820   17.9220 C   0  0  0  0  0  0  0  0  0  0  0  0
    2.3690   17.2080   17.7390 C   0  0  1  0  0  0  0  0  0  0  0  0
    1.2770   16.8920   18.8110 C   0  0  2  0  0  0  0  0  0  0  0  0
    1.8220   16.6520   20.2240 C   0  0  0  0  0  0  0  0  0  0  0  0
    1.3050   19.4800   16.3850 C   0  0  0  0  0  0  0  0  0  0  0  0
    1.1170   18.2540   15.8270 C   0  0  0  0  0  0  0  0  0  0  0  0
    0.4090   15.7620   18.3910 N   0  0  0  0  0  0  0  0  0  0  0  0
    0.1570   18.0620   14.6710 C   0  0  0  0  0  0  0  0  0  0  0  0
    0.9910   16.5240   21.1540 O   0  5  0  0  0  0  0  0  0  0  0  0
    1.8410   17.1160   16.3250 C   0  0  0  0  0  0  0  0  0  0  0  0
   -0.7530   15.9340   17.6540 C   0  0  0  0  0  0  0  0  0  0  0  0
    2.0390   16.1170   15.6590 O   0  0  0  0  0  0  0  0  0  0  0  0
   -1.1960   14.9080   17.0780 O   0  0  0  0  0  0  0  0  0  0  0  0
    3.0580   16.5690   20.4060 O   0  0  0  0  0  0  0  0  0  0  0  0
   -1.2840   17.0740   17.6010 O   0  5  0  0  0  0  0  0  0  0  0  0
    7.5990   21.4220   19.7420 H   0  0  0  0  0  0  0  0  0  0  0  0
    6.4010   23.4460   19.0510 H   0  0  0  0  0  0  0  0  0  0  0  0
    6.5460   19.2290   19.4850 H   0  0  0  0  0  0  0  0  0  0  0  0
    4.1480   23.2810   18.1150 H   0  0  0  0  0  0  0  0  0  0  0  0
    3.1320   16.4480   17.8380 H   0  0  0  0  0  0  0  0  0  0  0  0
    0.6430   17.7630   18.8890 H   0  0  0  0  0  0  0  0  0  0  0  0
    0.7790   20.3510   16.0890 H   0  0  0  0  0  0  0  0  0  0  0  0
    0.8970   14.8780   18.1880 H   0  0  0  0  0  0  0  0  0  0  0  0
   -0.5360   17.2580   14.8760 H   0  0  0  0  0  0  0  0  0  0  0  0
   -0.4260   18.9530   14.4830 H   0  0  0  0  0  0  0  0  0  0  0  0
    0.6900   17.8150   13.7630 H   0  0  0  0  0  0  0  0  0  0  0  0
  1  2  2  0  0  0  0
  1  3  1  0  0  0  0
  1 26  1  0  0  0  0
  2  4  1  0  0  0  0
  2 27  1  0  0  0  0
  3  6  2  0  0  0  0
  3 28  1  0  0  0  0
  4  5  2  0  0  0  0
  4 29  1  0  0  0  0
  5  6  1  0  0  0  0
  5  8  1  0  0  0  0
  6  7  1  0  0  0  0
  7 11  2  0  0  0  0
  8  9  1  0  0  0  0
  8 10  2  0  0  0  0
  9 11  1  0  0  0  0
  9 15  1  0  0  0  0
 11 12  1  0  0  0  0
 12 13  1  0  0  0  0
 12 20  1  0  0  0  0
 12 30  1  0  0  0  0
 13 14  1  0  0  0  0
 13 17  1  0  0  0  0
 13 31  1  0  0  0  0
 14 19  1  0  0  0  0
 14 24  2  0  0  0  0
 15 16  2  0  0  0  0
 15 32  1  0  0  0  0
 16 18  1  0  0  0  0
 16 20  1  0  0  0  0
 17 21  1  0  0  0  0
 17 33  1  0  0  0  0
 18 34  1  0  0  0  0
 18 35  1  0  0  0  0
 18 36  1  0  0  0  0
 20 22  2  0  0  0  0
 21 23  2  0  0  0  0
 21 25  1  0  0  0  0
M  CHG  1  19  -1
M  CHG  1  25  -1
M  END
> <rseq>
1

> <mseq>
122

> <S>
-5.52318

> <rmsd_refine>
1.542216

> <E_conf>
-232.4345

> <E_score1>
-8.458711

> <E_refine>
-29.98236

> <E_score2>
-5.52318

>  <$File>
outputs/pdb_4j58_cleaned.pdb_2024_06_17__22_47_40_V2_BS398_MIN1_/SDF/sdf_db.sdf

> <Rec_index>
1

>  <PLIF_raw>
[[17,23,19,5,8,9,11,7,6],[1071,1074,1206,1515,1515,1515,1515,1515,1515],[71,72,81,102,102,102,102,102,102],[3,4,7,10,10,10,10,10,10],[2.4,0.5,1.002192422,0.5,0.5,0.5,0.5,0.5,0.5]]

> <FP:PLIF>
7 14 41 24 22

>  <PLIF_ligidx>
[17,17,23,19,[5,8,9,11,7,6]]

$$$$
122
  MOE2022           3D

 47 48  0  0  1  0  0  0  0  0999 V2000
    2.3610   16.3660   20.5390 C   0  0  0  0  0  0  0  0  0  0  0  0
    2.8920   17.2000   19.5590 C   0  0  0  0  0  0  0  0  0  0  0  0
    1.1000   15.8130   20.3700 C   0  0  0  0  0  0  0  0  0  0  0  0
    0.3830   16.1010   19.2130 C   0  0  0  0  0  0  0  0  0  0  0  0
   -0.8520   15.5460   19.0500 O   0  0  0  0  0  0  0  0  0  0  0  0
    2.1710   17.4940   18.4000 C   0  0  0  0  0  0  0  0  0  0  0  0
    0.9010   16.9410   18.2280 C   0  0  0  0  0  0  0  0  0  0  0  0
    2.7950   18.4330   17.3820 C   0  0  2  0  0  0  0  0  0  0  0  0
    2.5660   19.8810   17.7230 N   0  3  0  0  0  0  0  0  0  0  0  0
    2.4460   18.0900   15.9420 C   0  0  0  0  0  0  0  0  0  0  0  0
    1.6590   18.7570   15.2920 O   0  0  0  0  0  0  0  0  0  0  0  0
    3.7340   20.7740   17.5200 C   0  0  0  0  0  0  0  0  0  0  0  0
    3.0440   16.9800   15.3890 N   0  0  0  0  0  0  0  0  0  0  0  0
    3.0550   16.6550   14.0080 C   0  0  0  0  0  0  0  0  0  0  0  0
    2.9740   15.3120   13.6420 C   0  0  0  0  0  0  0  0  0  0  0  0
    3.0910   14.9600   12.3020 C   0  0  0  0  0  0  0  0  0  0  0  0
    3.2770   15.9400   11.3250 C   0  0  0  0  0  0  0  0  0  0  0  0
    4.8240   20.6010   18.5840 C   0  0  0  0  0  0  0  0  0  0  0  0
    3.4480   15.5580    9.8660 C   0  0  0  0  0  0  0  0  0  0  0  0
    5.3940   19.4900   18.6490 O   0  5  0  0  0  0  0  0  0  0  0  0
    5.0580   21.5830   19.3190 O   0  0  0  0  0  0  0  0  0  0  0  0
    4.9120   15.5780    9.3950 C   0  0  0  0  0  0  0  0  0  0  0  0
    3.3220   17.2840   11.7000 C   0  0  0  0  0  0  0  0  0  0  0  0
    3.2120   17.6480   13.0370 C   0  0  0  0  0  0  0  0  0  0  0  0
    5.7510   14.4650   10.0330 C   0  0  0  0  0  0  0  0  0  0  0  0
    2.9210   16.1540   21.4130 H   0  0  0  0  0  0  0  0  0  0  0  0
    3.8510   17.6240   19.7040 H   0  0  0  0  0  0  0  0  0  0  0  0
    0.6880   15.1840   21.1130 H   0  0  0  0  0  0  0  0  0  0  0  0
   -1.2410   15.8120   18.1930 H   0  0  0  0  0  0  0  0  0  0  0  0
    0.3280   17.1530   17.3620 H   0  0  0  0  0  0  0  0  0  0  0  0
    3.8530   18.2220   17.4600 H   0  0  0  0  0  0  0  0  0  0  0  0
    1.7940   20.2120   17.1610 H   0  0  0  0  0  0  0  0  0  0  0  0
    2.3010   19.9360   18.6990 H   0  0  0  0  0  0  0  0  0  0  0  0
    4.1660   20.5920   16.5370 H   0  0  0  0  0  0  0  0  0  0  0  0
    3.3930   21.8090   17.5620 H   0  0  0  0  0  0  0  0  0  0  0  0
    3.5370   16.3360   16.0270 H   0  0  0  0  0  0  0  0  0  0  0  0
    2.8320   14.5650   14.3770 H   0  0  0  0  0  0  0  0  0  0  0  0
    3.0450   13.9380   12.0240 H   0  0  0  0  0  0  0  0  0  0  0  0
    3.0270   14.5670    9.6940 H   0  0  0  0  0  0  0  0  0  0  0  0
    2.8800   16.2650    9.2600 H   0  0  0  0  0  0  0  0  0  0  0  0
    4.9320   15.4480    8.3120 H   0  0  0  0  0  0  0  0  0  0  0  0
    5.3560   16.5450    9.6310 H   0  0  0  0  0  0  0  0  0  0  0  0
    3.4530   18.0340   10.9630 H   0  0  0  0  0  0  0  0  0  0  0  0
    3.2700   18.6700   13.3100 H   0  0  0  0  0  0  0  0  0  0  0  0
    6.7760   14.5270    9.6690 H   0  0  0  0  0  0  0  0  0  0  0  0
    5.7540   14.5700   11.1160 H   0  0  0  0  0  0  0  0  0  0  0  0
    5.3390   13.4910    9.7690 H   0  0  0  0  0  0  0  0  0  0  0  0
  1  2  2  0  0  0  0
  1  3  1  0  0  0  0
  1 26  1  0  0  0  0
  2  6  1  0  0  0  0
  2 27  1  0  0  0  0
  3  4  2  0  0  0  0
  3 28  1  0  0  0  0
  4  5  1  0  0  0  0
  4  7  1  0  0  0  0
  5 29  1  0  0  0  0
  6  7  2  0  0  0  0
  6  8  1  0  0  0  0
  7 30  1  0  0  0  0
  8  9  1  0  0  0  0
  8 10  1  0  0  0  0
  8 31  1  0  0  0  0
  9 12  1  0  0  0  0
  9 32  1  0  0  0  0
  9 33  1  0  0  0  0
 10 11  2  0  0  0  0
 10 13  1  0  0  0  0
 12 18  1  0  0  0  0
 12 34  1  0  0  0  0
 12 35  1  0  0  0  0
 13 14  1  0  0  0  0
 13 36  1  0  0  0  0
 14 15  1  0  0  0  0
 14 24  2  0  0  0  0
 15 16  2  0  0  0  0
 15 37  1  0  0  0  0
 16 17  1  0  0  0  0
 16 38  1  0  0  0  0
 17 19  1  0  0  0  0
 17 23  2  0  0  0  0
 18 20  1  0  0  0  0
 18 21  2  0  0  0  0
 19 22  1  0  0  0  0
 19 39  1  0  0  0  0
 19 40  1  0  0  0  0
 22 25  1  0  0  0  0
 22 41  1  0  0  0  0
 22 42  1  0  0  0  0
 23 24  1  0  0  0  0
 23 43  1  0  0  0  0
 24 44  1  0  0  0  0
 25 45  1  0  0  0  0
 25 46  1  0  0  0  0
 25 47  1  0  0  0  0
M  CHG  1   9   1
M  CHG  1  20  -1
M  END
> <rseq>
1

> <mseq>
123

> <S>
-5.996271

> <rmsd_refine>
1.189196

> <E_conf>
-16.36613

> <E_score1>
-9.224848

> <E_refine>
-30.54551

> <E_score2>
-5.996271

>  <$File>
outputs/pdb_4j58_cleaned.pdb_2024_06_17__22_47_40_V2_BS398_MIN1_/SDF/sdf_db.sdf

> <Rec_index>
1

>  <PLIF_raw>
[[9,21,1,3,4,7,6,2],[1504,1872,1519,1519,1519,1519,1519,1519],[101,125,102,102,102,102,102,102],[3,7,10,10,10,10,10,10],[8.7,1.488611615,0.5,0.5,0.5,0.5,0.5,0.5]]

> <FP:PLIF>
8 10 22 13

>  <PLIF_ligidx>
[9,9,[1,3,4,7,6,2],21]

$$$$
123
  MOE2022           3D

 42 42  0  0  1  0  0  0  0  0999 V2000
    3.6390   17.5680   19.6010 O   0  0  0  0  0  0  0  0  0  0  0  0
    2.8340   17.9420   18.7510 C   0  0  0  0  0  0  0  0  0  0  0  0
    1.5670   17.5010   18.7530 N   0  0  0  0  0  0  0  0  0  0  0  0
    3.2260   18.8250   17.5700 C   0  0  2  0  0  0  0  0  0  0  0  0
    1.0460   16.5470   19.7200 C   0  0  0  0  0  0  0  0  0  0  0  0
    3.2470   18.0260   16.3410 N   0  0  0  0  0  0  0  0  0  0  0  0
    2.9720   18.5220   15.0920 C   0  0  0  0  0  0  0  0  0  0  0  0
    2.7380   19.7230   14.9740 O   0  0  0  0  0  0  0  0  0  0  0  0
    2.9990   17.5980   13.9600 C   0  0  0  0  0  0  0  0  0  0  0  0
    3.1240   18.1000   12.6580 C   0  0  0  0  0  0  0  0  0  0  0  0
    3.2130   17.2400   11.5740 C   0  0  0  0  0  0  0  0  0  0  0  0
    2.9140   16.2070   14.1400 C   0  0  0  0  0  0  0  0  0  0  0  0
    3.1810   15.8530   11.7580 C   0  0  0  0  0  0  0  0  0  0  0  0
    3.0040   15.3470   13.0540 C   0  0  0  0  0  0  0  0  0  0  0  0
    3.3720   14.9720   10.6120 C   0  0  0  0  0  0  0  0  0  0  0  0
    3.0530   15.2890    9.4680 O   0  0  0  0  0  0  0  0  0  0  0  0
    3.9860   13.7620   10.8250 N   0  0  0  0  0  0  0  0  0  0  0  0
    4.5580   19.5980   17.7270 C   0  0  0  0  0  0  0  0  0  0  0  0
    4.5650   20.6820   18.7960 C   0  0  0  0  0  0  0  0  0  0  0  0
    4.9050   13.2090    9.8230 C   0  0  0  0  0  0  0  0  0  0  0  0
    6.3370   13.6740   10.0060 C   0  0  0  0  0  0  0  0  0  0  0  0
    7.2090   12.7890   10.1370 O   0  5  0  0  0  0  0  0  0  0  0  0
    3.9100   21.8090   18.5180 N   0  0  0  0  0  0  0  0  0  0  0  0
    5.1810   20.5230   19.8470 O   0  0  0  0  0  0  0  0  0  0  0  0
    6.5620   14.9060   10.0360 O   0  0  0  0  0  0  0  0  0  0  0  0
    0.9420   17.8150   18.0250 H   0  0  0  0  0  0  0  0  0  0  0  0
    2.4370   19.5580   17.4580 H   0  0  0  0  0  0  0  0  0  0  0  0
   -0.0060   16.3520   19.5100 H   0  0  0  0  0  0  0  0  0  0  0  0
    1.6060   15.6130   19.6490 H   0  0  0  0  0  0  0  0  0  0  0  0
    1.1450   16.9500   20.7280 H   0  0  0  0  0  0  0  0  0  0  0  0
    3.4760   17.0250   16.4340 H   0  0  0  0  0  0  0  0  0  0  0  0
    3.1660   19.1460   12.4950 H   0  0  0  0  0  0  0  0  0  0  0  0
    3.3240   17.6400   10.5990 H   0  0  0  0  0  0  0  0  0  0  0  0
    2.7830   15.7970   15.1080 H   0  0  0  0  0  0  0  0  0  0  0  0
    2.9440   14.3010   13.2130 H   0  0  0  0  0  0  0  0  0  0  0  0
    4.2230   13.5170   11.7990 H   0  0  0  0  0  0  0  0  0  0  0  0
    5.3600   18.9040   17.9520 H   0  0  0  0  0  0  0  0  0  0  0  0
    4.8000   20.0720   16.7760 H   0  0  0  0  0  0  0  0  0  0  0  0
    4.8680   12.1290    9.8630 H   0  0  0  0  0  0  0  0  0  0  0  0
    4.5760   13.4740    8.8280 H   0  0  0  0  0  0  0  0  0  0  0  0
    3.8760   22.5460   19.2050 H   0  0  0  0  0  0  0  0  0  0  0  0
    3.4170   21.9050   17.6430 H   0  0  0  0  0  0  0  0  0  0  0  0
  1  2  2  0  0  0  0
  2  3  1  0  0  0  0
  2  4  1  0  0  0  0
  3  5  1  0  0  0  0
  3 26  1  0  0  0  0
  4  6  1  0  0  0  0
  4 18  1  0  0  0  0
  4 27  1  0  0  0  0
  5 28  1  0  0  0  0
  5 29  1  0  0  0  0
  5 30  1  0  0  0  0
  6  7  1  0  0  0  0
  6 31  1  0  0  0  0
  7  8  2  0  0  0  0
  7  9  1  0  0  0  0
  9 10  1  0  0  0  0
  9 12  2  0  0  0  0
 10 11  2  0  0  0  0
 10 32  1  0  0  0  0
 11 13  1  0  0  0  0
 11 33  1  0  0  0  0
 12 14  1  0  0  0  0
 12 34  1  0  0  0  0
 13 14  2  0  0  0  0
 13 15  1  0  0  0  0
 14 35  1  0  0  0  0
 15 16  2  0  0  0  0
 15 17  1  0  0  0  0
 17 20  1  0  0  0  0
 17 36  1  0  0  0  0
 18 19  1  0  0  0  0
 18 37  1  0  0  0  0
 18 38  1  0  0  0  0
 19 23  1  0  0  0  0
 19 24  2  0  0  0  0
 20 21  1  0  0  0  0
 20 39  1  0  0  0  0
 20 40  1  0  0  0  0
 21 22  1  0  0  0  0
 21 25  2  0  0  0  0
 23 41  1  0  0  0  0
 23 42  1  0  0  0  0
M  CHG  1  22  -1
M  END
> <rseq>
1

> <mseq>
124

> <S>
-5.785568

> <rmsd_refine>
1.293868

> <E_conf>
-108.4922

> <E_score1>
-8.098232

> <E_refine>
-30.28829

> <E_score2>
-5.785568

>  <$File>
outputs/pdb_4j58_cleaned.pdb_2024_06_17__22_47_40_V2_BS398_MIN1_/SDF/sdf_db.sdf

> <Rec_index>
1

>  <PLIF_raw>
[[17,24,24,25],[1056,1499,1870,823],[70,101,125,54],[3,4,2,7],[2.1,0.6,0.8,1.722199642]]

> <FP:PLIF>
1 3 4 11 29

>  <PLIF_ligidx>
[25,17,17,24,24]

$$$$
124
  MOE2022           3D

 44 46  0  0  1  0  0  0  0  0999 V2000
    7.2510   21.2830   19.1540 C   0  0  0  0  0  0  0  0  0  0  0  0
    6.3930   20.3380   18.6110 C   0  0  0  0  0  0  0  0  0  0  0  0
    5.1040   20.6980   18.1990 C   0  0  0  0  0  0  0  0  0  0  0  0
    4.2380   19.6890   17.6180 C   0  0  0  0  0  0  0  0  0  0  0  0
    3.3240   19.8680   16.6170 C   0  0  0  0  0  0  0  0  0  0  0  0
    3.0950   21.1340   15.9150 C   0  0  0  0  0  0  0  0  0  0  0  0
    2.4670   18.7020   16.1270 C   0  0  2  0  0  0  0  0  0  0  0  0
    6.8280   22.5980   19.2950 C   0  0  0  0  0  0  0  0  0  0  0  0
    4.6740   22.0180   18.3850 C   0  0  0  0  0  0  0  0  0  0  0  0
    2.9080   21.1670   14.6980 O   0  0  0  0  0  0  0  0  0  0  0  0
    3.0510   22.3430   16.5910 N   0  0  0  0  0  0  0  0  0  0  0  0
    2.5100   17.5200   17.0170 N   0  0  0  0  0  0  0  0  0  0  0  0
    5.5440   22.9660   18.9100 C   0  0  0  0  0  0  0  0  0  0  0  0
    2.9830   23.6260   15.8770 C   0  0  0  0  0  0  0  0  0  0  0  0
    3.2620   22.3990   18.0250 C   0  0  0  0  0  0  0  0  0  0  0  0
    1.5410   17.5830   18.1400 C   0  0  1  0  0  0  0  0  0  0  0  0
    2.4330   16.3120   16.1940 C   0  0  2  0  0  0  0  0  0  0  0  0
    0.1850   17.4660   17.6370 O   0  0  0  0  0  0  0  0  0  0  0  0
    3.6610   15.6040   16.3740 O   0  0  0  0  0  0  0  0  0  0  0  0
    1.8210   16.6010   19.2840 C   0  0  0  0  0  0  0  0  0  0  0  0
    2.7010   16.9170   20.1180 O   0  0  0  0  0  0  0  0  0  0  0  0
    1.1460   15.5460   19.3490 O   0  5  0  0  0  0  0  0  0  0  0  0
    2.2670   16.7630   14.7340 C   0  0  1  0  0  0  0  0  0  0  0  0
    2.8170   18.1740   14.7320 C   0  0  0  0  0  0  0  0  0  0  0  0
    2.9300   15.9250   13.8010 O   0  0  0  0  0  0  0  0  0  0  0  0
    8.2280   21.0040   19.4560 H   0  0  0  0  0  0  0  0  0  0  0  0
    6.7210   19.3380   18.5040 H   0  0  0  0  0  0  0  0  0  0  0  0
    4.3760   18.7260   18.0360 H   0  0  0  0  0  0  0  0  0  0  0  0
    1.4390   19.0410   16.0860 H   0  0  0  0  0  0  0  0  0  0  0  0
    7.4770   23.3180   19.7060 H   0  0  0  0  0  0  0  0  0  0  0  0
    5.2290   23.9710   19.0250 H   0  0  0  0  0  0  0  0  0  0  0  0
    3.9700   23.9640   15.5930 H   0  0  0  0  0  0  0  0  0  0  0  0
    2.3870   23.5600   14.9760 H   0  0  0  0  0  0  0  0  0  0  0  0
    2.5340   24.3990   16.4860 H   0  0  0  0  0  0  0  0  0  0  0  0
    2.5640   21.7390   18.5220 H   0  0  0  0  0  0  0  0  0  0  0  0
    3.0290   23.3840   18.4070 H   0  0  0  0  0  0  0  0  0  0  0  0
    1.6360   18.5780   18.5540 H   0  0  0  0  0  0  0  0  0  0  0  0
    1.6120   15.6810   16.5030 H   0  0  0  0  0  0  0  0  0  0  0  0
   -0.1910   16.6280   17.9550 H   0  0  0  0  0  0  0  0  0  0  0  0
    4.3780   16.1000   15.9520 H   0  0  0  0  0  0  0  0  0  0  0  0
    1.1990   16.8000   14.5160 H   0  0  0  0  0  0  0  0  0  0  0  0
    2.3570   18.7680   13.9420 H   0  0  0  0  0  0  0  0  0  0  0  0
    3.9000   18.1510   14.6120 H   0  0  0  0  0  0  0  0  0  0  0  0
    2.6580   15.0170   13.9640 H   0  0  0  0  0  0  0  0  0  0  0  0
  1  2  1  0  0  0  0
  1  8  2  0  0  0  0
  1 26  1  0  0  0  0
  2  3  2  0  0  0  0
  2 27  1  0  0  0  0
  3  4  1  0  0  0  0
  3  9  1  0  0  0  0
  4  5  2  0  0  0  0
  4 28  1  0  0  0  0
  5  6  1  0  0  0  0
  5  7  1  0  0  0  0
  6 10  2  0  0  0  0
  6 11  1  0  0  0  0
  7 12  1  0  0  0  0
  7 24  1  0  0  0  0
  7 29  1  0  0  0  0
  8 13  1  0  0  0  0
  8 30  1  0  0  0  0
  9 13  2  0  0  0  0
  9 15  1  0  0  0  0
 11 14  1  0  0  0  0
 11 15  1  0  0  0  0
 12 16  1  0  0  0  0
 12 17  1  0  0  0  0
 13 31  1  0  0  0  0
 14 32  1  0  0  0  0
 14 33  1  0  0  0  0
 14 34  1  0  0  0  0
 15 35  1  0  0  0  0
 15 36  1  0  0  0  0
 16 18  1  0  0  0  0
 16 20  1  0  0  0  0
 16 37  1  0  0  0  0
 17 19  1  0  0  0  0
 17 23  1  0  0  0  0
 17 38  1  0  0  0  0
 18 39  1  0  0  0  0
 19 40  1  0  0  0  0
 20 21  2  0  0  0  0
 20 22  1  0  0  0  0
 23 24  1  0  0  0  0
 23 25  1  0  0  0  0
 23 41  1  0  0  0  0
 24 42  1  0  0  0  0
 24 43  1  0  0  0  0
 25 44  1  0  0  0  0
M  CHG  1  22  -1
M  END
> <rseq>
1

> <mseq>
125

> <S>
-5.502322

> <rmsd_refine>
0.9065633

> <E_conf>
0.2586852

> <E_score1>
-10.1651

> <E_refine>
-26.06102

> <E_score2>
-5.502322

>  <$File>
outputs/pdb_4j58_cleaned.pdb_2024_06_17__22_47_40_V2_BS398_MIN1_/SDF/sdf_db.sdf

> <Rec_index>
1

>  <PLIF_raw>
[12,954,62,2,0.5]

> <FP:PLIF>
20

>  <PLIF_ligidx>
12

$$$$
125
  MOE2022           3D

 44 45  0  0  0  0  0  0  0  0999 V2000
    5.3330   14.8380    9.9050 C   0  0  0  0  0  0  0  0  0  0  0  0
    4.5460   14.7760   11.0490 C   0  0  0  0  0  0  0  0  0  0  0  0
    3.7210   15.8600   11.3970 C   0  0  0  0  0  0  0  0  0  0  0  0
    6.1680   13.7900    9.6050 O   0  0  0  0  0  0  0  0  0  0  0  0
    3.6830   16.9820   10.5440 C   0  0  0  0  0  0  0  0  0  0  0  0
    2.9600   15.8340   12.6480 C   0  0  0  0  0  0  0  0  0  0  0  0
    2.0000   16.8000   12.8340 N   0  0  0  0  0  0  0  0  0  0  0  0
    3.1400   15.0070   13.5410 O   0  0  0  0  0  0  0  0  0  0  0  0
    5.2830   15.9600    9.0750 C   0  0  0  0  0  0  0  0  0  0  0  0
    1.4110   17.1990   14.0850 C   0  0  0  0  0  0  0  0  0  0  0  0
    2.2540   17.4910   15.2170 C   0  0  0  0  0  0  0  0  0  0  0  0
    0.0620   17.3850   14.1420 C   0  0  0  0  0  0  0  0  0  0  0  0
    3.4850   17.3710   15.2260 O   0  0  0  0  0  0  0  0  0  0  0  0
   -0.7740   17.1170   13.0990 O   0  0  0  0  0  0  0  0  0  0  0  0
   -0.5420   17.9000   15.2950 N   0  0  0  0  0  0  0  0  0  0  0  0
    6.0410   16.0230    7.9490 O   0  0  0  0  0  0  0  0  0  0  0  0
    1.6290   18.0070   16.3680 N   0  0  0  0  0  0  0  0  0  0  0  0
   -2.0050   18.0870   15.3700 C   0  0  0  0  0  0  0  0  0  0  0  0
    0.2540   18.3310   16.3670 C   0  0  0  0  0  0  0  0  0  0  0  0
    4.4560   17.0310    9.3900 C   0  0  0  0  0  0  0  0  0  0  0  0
   -0.2410   18.9870   17.2850 O   0  0  0  0  0  0  0  0  0  0  0  0
    2.4280   18.2920   17.5910 C   0  0  0  0  0  0  0  0  0  0  0  0
    1.9560   17.5890   18.8770 C   0  0  0  0  0  0  0  0  0  0  0  0
    1.6600   16.0970   18.7300 C   0  0  0  0  0  0  0  0  0  0  0  0
    1.1750   15.5170   20.0620 C   0  0  0  0  0  0  0  0  0  0  0  0
    4.5830   13.9170   11.6680 H   0  0  0  0  0  0  0  0  0  0  0  0
    6.1080   13.0990   10.2950 H   0  0  0  0  0  0  0  0  0  0  0  0
    3.0720   17.8150   10.7760 H   0  0  0  0  0  0  0  0  0  0  0  0
    1.6850   17.2970   11.9880 H   0  0  0  0  0  0  0  0  0  0  0  0
   -1.6990   17.3170   13.3410 H   0  0  0  0  0  0  0  0  0  0  0  0
    6.5700   15.2050    7.8650 H   0  0  0  0  0  0  0  0  0  0  0  0
   -2.5390   17.2390   14.9640 H   0  0  0  0  0  0  0  0  0  0  0  0
   -2.3570   18.1990   16.3870 H   0  0  0  0  0  0  0  0  0  0  0  0
   -2.3150   18.9680   14.8240 H   0  0  0  0  0  0  0  0  0  0  0  0
    4.4210   17.8800    8.7560 H   0  0  0  0  0  0  0  0  0  0  0  0
    3.4680   18.0390   17.4460 H   0  0  0  0  0  0  0  0  0  0  0  0
    2.4400   19.3610   17.7620 H   0  0  0  0  0  0  0  0  0  0  0  0
    2.7350   17.7140   19.6300 H   0  0  0  0  0  0  0  0  0  0  0  0
    1.0550   18.0810   19.2350 H   0  0  0  0  0  0  0  0  0  0  0  0
    0.8820   15.9470   17.9810 H   0  0  0  0  0  0  0  0  0  0  0  0
    2.5670   15.5870   18.4100 H   0  0  0  0  0  0  0  0  0  0  0  0
    0.8970   14.4750   19.9120 H   0  0  0  0  0  0  0  0  0  0  0  0
    1.9690   15.5800   20.8070 H   0  0  0  0  0  0  0  0  0  0  0  0
    0.3010   16.0680   20.4120 H   0  0  0  0  0  0  0  0  0  0  0  0
  1  2  1  0  0  0  0
  1  4  1  0  0  0  0
  1  9  2  0  0  0  0
  2  3  2  0  0  0  0
  2 26  1  0  0  0  0
  3  5  1  0  0  0  0
  3  6  1  0  0  0  0
  4 27  1  0  0  0  0
  5 20  2  0  0  0  0
  5 28  1  0  0  0  0
  6  7  1  0  0  0  0
  6  8  2  0  0  0  0
  7 10  1  0  0  0  0
  7 29  1  0  0  0  0
  9 16  1  0  0  0  0
  9 20  1  0  0  0  0
 10 11  1  0  0  0  0
 10 12  2  0  0  0  0
 11 13  2  0  0  0  0
 11 17  1  0  0  0  0
 12 14  1  0  0  0  0
 12 15  1  0  0  0  0
 14 30  1  0  0  0  0
 15 18  1  0  0  0  0
 15 19  1  0  0  0  0
 16 31  1  0  0  0  0
 17 19  1  0  0  0  0
 17 22  1  0  0  0  0
 18 32  1  0  0  0  0
 18 33  1  0  0  0  0
 18 34  1  0  0  0  0
 19 21  2  0  0  0  0
 20 35  1  0  0  0  0
 22 23  1  0  0  0  0
 22 36  1  0  0  0  0
 22 37  1  0  0  0  0
 23 24  1  0  0  0  0
 23 38  1  0  0  0  0
 23 39  1  0  0  0  0
 24 25  1  0  0  0  0
 24 40  1  0  0  0  0
 24 41  1  0  0  0  0
 25 42  1  0  0  0  0
 25 43  1  0  0  0  0
 25 44  1  0  0  0  0
M  END
> <rseq>
1

> <mseq>
126

> <S>
-5.306575

> <rmsd_refine>
1.658292

> <E_conf>
-75.11048

> <E_score1>
-10.18553

> <E_refine>
-24.884

> <E_score2>
-5.306575

>  <$File>
outputs/pdb_4j58_cleaned.pdb_2024_06_17__22_47_40_V2_BS398_MIN1_/SDF/sdf_db.sdf

> <Rec_index>
1

>  <PLIF_raw>
[[1,9,20,5,3,2],[823,823,823,823,823,823],[54,54,54,54,54,54],[10,10,10,10,10,10],[0.5,0.5,0.5,0.5,0.5,0.5]]

> <FP:PLIF>
2

>  <PLIF_ligidx>
[[1,9,20,5,3,2]]

$$$$
126
  MOE2022           3D

 43 45  0  0  0  0  0  0  0  0999 V2000
    2.8320   17.0580   19.7340 C   0  0  0  0  0  0  0  0  0  0  0  0
    2.1470   17.1450   18.5210 C   0  0  0  0  0  0  0  0  0  0  0  0
    0.9470   16.4610   18.3190 C   0  0  0  0  0  0  0  0  0  0  0  0
    0.4380   15.6840   19.3590 C   0  0  0  0  0  0  0  0  0  0  0  0
   -0.7590   14.9930   19.1740 N   0  0  0  0  0  0  0  0  0  0  0  0
    2.3100   16.2780   20.7600 C   0  0  0  0  0  0  0  0  0  0  0  0
    1.1110   15.6000   20.5820 C   0  0  0  0  0  0  0  0  0  0  0  0
    2.6950   17.9910   17.5320 N   0  0  0  0  0  0  0  0  0  0  0  0
    2.7010   17.7870   16.1620 C   0  0  0  0  0  0  0  0  0  0  0  0
    3.2250   18.8880   15.3460 C   0  0  0  0  0  0  0  0  0  0  0  0
    2.3170   16.7110   15.7110 O   0  0  0  0  0  0  0  0  0  0  0  0
    4.0880   19.7250   15.9310 N   0  0  0  0  0  0  0  0  0  0  0  0
    2.8810   19.1100   14.0040 C   0  0  0  0  0  0  0  0  0  0  0  0
    3.4620   20.1890   13.3520 C   0  0  0  0  0  0  0  0  0  0  0  0
    4.6340   20.7430   15.2630 C   0  0  0  0  0  0  0  0  0  0  0  0
    4.3220   20.9790   13.9760 N   0  0  0  0  0  0  0  0  0  0  0  0
    5.6370   21.5620   15.9480 C   0  0  0  0  0  0  0  0  0  0  0  0
    1.9020   18.2330   13.2450 C   0  0  0  0  0  0  0  0  0  0  0  0
    6.4930   20.9590   16.8860 C   0  0  0  0  0  0  0  0  0  0  0  0
    5.8030   22.9400   15.7100 C   0  0  0  0  0  0  0  0  0  0  0  0
    7.4820   21.6850   17.5400 C   0  0  0  0  0  0  0  0  0  0  0  0
    7.6250   23.0450   17.2720 C   0  0  0  0  0  0  0  0  0  0  0  0
    4.9990   23.6150   14.8390 O   0  0  0  0  0  0  0  0  0  0  0  0
    6.7890   23.6750   16.3610 C   0  0  0  0  0  0  0  0  0  0  0  0
    8.3870   21.0110   18.5500 C   0  0  0  0  0  0  0  0  0  0  0  0
    3.7380   17.5870   19.8720 H   0  0  0  0  0  0  0  0  0  0  0  0
    0.4220   16.5360   17.4030 H   0  0  0  0  0  0  0  0  0  0  0  0
   -0.8740   14.1500   19.7520 H   0  0  0  0  0  0  0  0  0  0  0  0
   -1.0130   14.8540   18.1830 H   0  0  0  0  0  0  0  0  0  0  0  0
    2.8250   16.2030   21.6820 H   0  0  0  0  0  0  0  0  0  0  0  0
    0.7100   15.0320   21.3720 H   0  0  0  0  0  0  0  0  0  0  0  0
    3.1570   18.8540   17.8620 H   0  0  0  0  0  0  0  0  0  0  0  0
    3.2300   20.4000   12.3390 H   0  0  0  0  0  0  0  0  0  0  0  0
    1.6480   18.6670   12.2770 H   0  0  0  0  0  0  0  0  0  0  0  0
    2.3310   17.2470   13.0670 H   0  0  0  0  0  0  0  0  0  0  0  0
    0.9740   18.1150   13.8060 H   0  0  0  0  0  0  0  0  0  0  0  0
    6.3920   19.9260   17.1020 H   0  0  0  0  0  0  0  0  0  0  0  0
    8.3730   23.6000   17.7680 H   0  0  0  0  0  0  0  0  0  0  0  0
    4.3640   23.0030   14.4130 H   0  0  0  0  0  0  0  0  0  0  0  0
    6.8990   24.7110   16.1630 H   0  0  0  0  0  0  0  0  0  0  0  0
    9.3730   21.4780   18.5650 H   0  0  0  0  0  0  0  0  0  0  0  0
    7.9580   21.0860   19.5490 H   0  0  0  0  0  0  0  0  0  0  0  0
    8.5210   19.9550   18.3120 H   0  0  0  0  0  0  0  0  0  0  0  0
  1  2  1  0  0  0  0
  1  6  2  0  0  0  0
  1 26  1  0  0  0  0
  2  3  2  0  0  0  0
  2  8  1  0  0  0  0
  3  4  1  0  0  0  0
  3 27  1  0  0  0  0
  4  5  1  0  0  0  0
  4  7  2  0  0  0  0
  5 28  1  0  0  0  0
  5 29  1  0  0  0  0
  6  7  1  0  0  0  0
  6 30  1  0  0  0  0
  7 31  1  0  0  0  0
  8  9  1  0  0  0  0
  8 32  1  0  0  0  0
  9 10  1  0  0  0  0
  9 11  2  0  0  0  0
 10 12  1  0  0  0  0
 10 13  2  0  0  0  0
 12 15  2  0  0  0  0
 13 14  1  0  0  0  0
 13 18  1  0  0  0  0
 14 16  2  0  0  0  0
 14 33  1  0  0  0  0
 15 16  1  0  0  0  0
 15 17  1  0  0  0  0
 17 19  2  0  0  0  0
 17 20  1  0  0  0  0
 18 34  1  0  0  0  0
 18 35  1  0  0  0  0
 18 36  1  0  0  0  0
 19 21  1  0  0  0  0
 19 37  1  0  0  0  0
 20 23  1  0  0  0  0
 20 24  2  0  0  0  0
 21 22  2  0  0  0  0
 21 25  1  0  0  0  0
 22 24  1  0  0  0  0
 22 38  1  0  0  0  0
 23 39  1  0  0  0  0
 24 40  1  0  0  0  0
 25 41  1  0  0  0  0
 25 42  1  0  0  0  0
 25 43  1  0  0  0  0
M  END
> <rseq>
1

> <mseq>
127

> <S>
-5.642385

> <rmsd_refine>
1.789981

> <E_conf>
-38.57252

> <E_score1>
-9.145129

> <E_refine>
-23.54708

> <E_score2>
-5.642385

>  <$File>
outputs/pdb_4j58_cleaned.pdb_2024_06_17__22_47_40_V2_BS398_MIN1_/SDF/sdf_db.sdf

> <Rec_index>
1

>  <PLIF_raw>
[[],[],[],[],[]]

>  <PLIF_ligidx>
[]

$$$$
127
  MOE2022           3D

 41 43  0  0  1  0  0  0  0  0999 V2000
    4.7040   13.9020   10.8310 C   0  0  0  0  0  0  0  0  0  0  0  0
    5.3950   14.5570    9.8210 C   0  0  0  0  0  0  0  0  0  0  0  0
    3.8130   14.6260   11.6140 C   0  0  0  0  0  0  0  0  0  0  0  0
    6.2610   13.8520    9.0600 F   0  0  0  0  0  0  0  0  0  0  0  0
    3.6140   16.0010   11.3950 C   0  0  0  0  0  0  0  0  0  0  0  0
    2.7000   16.7680   12.2260 C   0  0  0  0  0  0  0  0  0  0  0  0
    5.2180   15.9110    9.5670 C   0  0  0  0  0  0  0  0  0  0  0  0
    4.3230   16.6270   10.3530 C   0  0  0  0  0  0  0  0  0  0  0  0
    2.4260   16.4590   13.5550 N   0  0  0  0  0  0  0  0  0  0  0  0
    1.9630   17.8890   11.9370 C   0  0  0  0  0  0  0  0  0  0  0  0
    1.5450   17.3740   14.0700 C   0  0  0  0  0  0  0  0  0  0  0  0
    1.0790   17.3290   15.4130 N   0  0  0  0  0  0  0  0  0  0  0  0
    1.2420   18.2630   13.0720 C   0  0  0  0  0  0  0  0  0  0  0  0
    0.6070   18.6080   15.9630 C   0  0  0  0  0  0  0  0  0  0  0  0
    1.9050   16.6820   16.4540 C   0  0  0  0  0  0  0  0  0  0  0  0
    2.2170   17.7300   17.5480 C   0  0  2  0  0  0  0  0  0  0  0  0
    2.3800   17.1080   18.9440 C   0  0  0  0  0  0  0  0  0  0  0  0
    1.0010   18.6630   17.4360 C   0  0  0  0  0  0  0  0  0  0  0  0
    3.4790   18.5220   17.1710 C   0  0  0  0  0  0  0  0  0  0  0  0
    4.2170   18.0890   16.2570 O   0  5  0  0  0  0  0  0  0  0  0  0
    3.7430   19.5640   17.8110 O   0  0  0  0  0  0  0  0  0  0  0  0
    1.4270   16.3610   19.5520 O   0  0  0  0  0  0  0  0  0  0  0  0
    3.4000   17.2560   19.6150 O   0  0  0  0  0  0  0  0  0  0  0  0
    0.1150   15.9040   19.1700 C   0  0  0  0  0  0  0  0  0  0  0  0
    0.0390   14.4770   19.2670 O   0  0  0  0  0  0  0  0  0  0  0  0
    4.8530   12.8670   10.9980 H   0  0  0  0  0  0  0  0  0  0  0  0
    3.2770   14.1340   12.3840 H   0  0  0  0  0  0  0  0  0  0  0  0
    5.7550   16.3860    8.7870 H   0  0  0  0  0  0  0  0  0  0  0  0
    4.1800   17.6610   10.1690 H   0  0  0  0  0  0  0  0  0  0  0  0
    2.8290   15.6730   14.0880 H   0  0  0  0  0  0  0  0  0  0  0  0
    1.9450   18.3840   11.0010 H   0  0  0  0  0  0  0  0  0  0  0  0
    0.5800   19.0850   13.1530 H   0  0  0  0  0  0  0  0  0  0  0  0
    1.0820   19.4330   15.4490 H   0  0  0  0  0  0  0  0  0  0  0  0
   -0.4610   18.7210   15.8330 H   0  0  0  0  0  0  0  0  0  0  0  0
    1.3350   15.8650   16.8620 H   0  0  0  0  0  0  0  0  0  0  0  0
    2.7970   16.2130   16.0640 H   0  0  0  0  0  0  0  0  0  0  0  0
    0.1680   18.2960   18.0260 H   0  0  0  0  0  0  0  0  0  0  0  0
    1.2220   19.6850   17.7420 H   0  0  0  0  0  0  0  0  0  0  0  0
   -0.1460   16.2080   18.1670 H   0  0  0  0  0  0  0  0  0  0  0  0
   -0.6200   16.3340   19.8380 H   0  0  0  0  0  0  0  0  0  0  0  0
    0.5710   14.0740   18.5590 H   0  0  0  0  0  0  0  0  0  0  0  0
  1  2  2  0  0  0  0
  1  3  1  0  0  0  0
  1 26  1  0  0  0  0
  2  4  1  0  0  0  0
  2  7  1  0  0  0  0
  3  5  2  0  0  0  0
  3 27  1  0  0  0  0
  5  6  1  0  0  0  0
  5  8  1  0  0  0  0
  6  9  1  0  0  0  0
  6 10  2  0  0  0  0
  7  8  2  0  0  0  0
  7 28  1  0  0  0  0
  8 29  1  0  0  0  0
  9 11  1  0  0  0  0
  9 30  1  0  0  0  0
 10 13  1  0  0  0  0
 10 31  1  0  0  0  0
 11 12  1  0  0  0  0
 11 13  2  0  0  0  0
 12 14  1  0  0  0  0
 12 15  1  0  0  0  0
 13 32  1  0  0  0  0
 14 18  1  0  0  0  0
 14 33  1  0  0  0  0
 14 34  1  0  0  0  0
 15 16  1  0  0  0  0
 15 35  1  0  0  0  0
 15 36  1  0  0  0  0
 16 17  1  0  0  0  0
 16 18  1  0  0  0  0
 16 19  1  0  0  0  0
 17 22  1  0  0  0  0
 17 23  2  0  0  0  0
 18 37  1  0  0  0  0
 18 38  1  0  0  0  0
 19 20  1  0  0  0  0
 19 21  2  0  0  0  0
 22 24  1  0  0  0  0
 24 25  1  0  0  0  0
 24 39  1  0  0  0  0
 24 40  1  0  0  0  0
 25 41  1  0  0  0  0
M  CHG  1  20  -1
M  END
> <rseq>
1

> <mseq>
128

> <S>
-5.367055

> <rmsd_refine>
2.156646

> <E_conf>
-106.1083

> <E_score1>
-9.747301

> <E_refine>
-28.77983

> <E_score2>
-5.367055

>  <$File>
outputs/pdb_4j58_cleaned.pdb_2024_06_17__22_47_40_V2_BS398_MIN1_/SDF/sdf_db.sdf

> <Rec_index>
1

>  <PLIF_raw>
[[25,20,25,20],[1071,954,1212,826],[71,62,81,54],[3,2,2,7],[2.6,1.1,1.7,2.19664777]]

> <FP:PLIF>
1 20 7 14 17 18

>  <PLIF_ligidx>
[20,20,25,25,25,25]

$$$$
128
  MOE2022           3D

 40 42  0  0  1  0  0  0  0  0999 V2000
    8.6100   21.1010   18.4210 C   0  0  0  0  0  0  0  0  0  0  0  0
    8.3780   22.1990   17.6060 C   0  0  0  0  0  0  0  0  0  0  0  0
    7.6470   20.1040   18.5260 C   0  0  0  0  0  0  0  0  0  0  0  0
    6.4520   20.2010   17.8160 C   0  0  0  0  0  0  0  0  0  0  0  0
    7.1750   22.2990   16.9110 C   0  0  0  0  0  0  0  0  0  0  0  0
    6.9930   23.4050   16.1280 O   0  0  0  0  0  0  0  0  0  0  0  0
    6.1860   21.3080   17.0020 C   0  0  0  0  0  0  0  0  0  0  0  0
    4.8590   21.4670   16.2480 C   0  0  2  0  0  0  0  0  0  0  0  0
    3.9270   20.3430   16.3340 N   0  0  0  0  0  0  0  0  0  0  0  0
    5.0730   21.6410   14.8200 N   0  0  0  0  0  0  0  0  0  0  0  0
    3.1950   20.2930   15.0310 C   0  0  2  0  0  0  0  0  0  0  0  0
    4.2070   21.0070   14.1500 C   0  0  0  0  0  0  0  0  0  0  0  0
    4.2070   21.0090   12.6820 C   0  0  0  0  0  0  0  0  0  0  0  0
    1.8650   21.1240   15.0380 C   0  0  0  0  0  0  0  0  0  0  0  0
    3.1540   20.2590   17.6100 C   0  0  0  0  0  0  0  0  0  0  0  0
    2.9940   18.8280   14.6010 C   0  0  0  0  0  0  0  0  0  0  0  0
    2.4380   18.9160   17.8060 C   0  0  0  0  0  0  0  0  0  0  0  0
    3.9120   18.0130   14.6390 O   0  0  0  0  0  0  0  0  0  0  0  0
    1.8220   18.4490   14.0690 N   0  0  0  0  0  0  0  0  0  0  0  0
    3.4790   20.2110   12.0370 O   0  0  0  0  0  0  0  0  0  0  0  0
    4.9750   21.8060   12.0680 O   0  5  0  0  0  0  0  0  0  0  0  0
    3.1330   17.9500   18.1920 O   0  5  0  0  0  0  0  0  0  0  0  0
    1.2040   18.8860   17.5990 O   0  0  0  0  0  0  0  0  0  0  0  0
    0.5870   19.2080   14.1840 C   0  0  0  0  0  0  0  0  0  0  0  0
    0.8630   20.6950   13.9600 C   0  0  0  0  0  0  0  0  0  0  0  0
    9.5200   21.0200   18.9570 H   0  0  0  0  0  0  0  0  0  0  0  0
    9.1120   22.9540   17.5080 H   0  0  0  0  0  0  0  0  0  0  0  0
    7.8250   19.2640   19.1460 H   0  0  0  0  0  0  0  0  0  0  0  0
    5.7470   19.4170   17.9050 H   0  0  0  0  0  0  0  0  0  0  0  0
    6.2070   23.2780   15.5560 H   0  0  0  0  0  0  0  0  0  0  0  0
    4.3540   22.3530   16.6090 H   0  0  0  0  0  0  0  0  0  0  0  0
    1.3330   21.0060   15.9780 H   0  0  0  0  0  0  0  0  0  0  0  0
    2.0900   22.1850   14.9250 H   0  0  0  0  0  0  0  0  0  0  0  0
    3.8480   20.3750   18.4410 H   0  0  0  0  0  0  0  0  0  0  0  0
    2.4450   21.0800   17.6950 H   0  0  0  0  0  0  0  0  0  0  0  0
    1.7520   17.5060   13.7180 H   0  0  0  0  0  0  0  0  0  0  0  0
   -0.1210   18.8570   13.4320 H   0  0  0  0  0  0  0  0  0  0  0  0
    0.1550   19.0540   15.1730 H   0  0  0  0  0  0  0  0  0  0  0  0
   -0.0630   21.2580   14.0760 H   0  0  0  0  0  0  0  0  0  0  0  0
    1.2580   20.8690   12.9610 H   0  0  0  0  0  0  0  0  0  0  0  0
  1  2  1  0  0  0  0
  1  3  2  0  0  0  0
  1 26  1  0  0  0  0
  2  5  2  0  0  0  0
  2 27  1  0  0  0  0
  3  4  1  0  0  0  0
  3 28  1  0  0  0  0
  4  7  2  0  0  0  0
  4 29  1  0  0  0  0
  5  6  1  0  0  0  0
  5  7  1  0  0  0  0
  6 30  1  0  0  0  0
  7  8  1  0  0  0  0
  8  9  1  0  0  0  0
  8 10  1  0  0  0  0
  8 31  1  0  0  0  0
  9 11  1  0  0  0  0
  9 15  1  0  0  0  0
 10 12  2  0  0  0  0
 11 12  1  0  0  0  0
 11 14  1  0  0  0  0
 11 16  1  0  0  0  0
 12 13  1  0  0  0  0
 13 20  2  0  0  0  0
 13 21  1  0  0  0  0
 14 25  1  0  0  0  0
 14 32  1  0  0  0  0
 14 33  1  0  0  0  0
 15 17  1  0  0  0  0
 15 34  1  0  0  0  0
 15 35  1  0  0  0  0
 16 18  2  0  0  0  0
 16 19  1  0  0  0  0
 17 22  1  0  0  0  0
 17 23  2  0  0  0  0
 19 24  1  0  0  0  0
 19 36  1  0  0  0  0
 24 25  1  0  0  0  0
 24 37  1  0  0  0  0
 24 38  1  0  0  0  0
 25 39  1  0  0  0  0
 25 40  1  0  0  0  0
M  CHG  1  21  -1
M  CHG  1  22  -1
M  END
> <rseq>
1

> <mseq>
129

> <S>
-4.818927

> <rmsd_refine>
1.409283

> <E_conf>
-11.20914

> <E_score1>
-9.561021

> <E_refine>
-23.22782

> <E_score2>
-4.818927

>  <$File>
outputs/pdb_4j58_cleaned.pdb_2024_06_17__22_47_40_V2_BS398_MIN1_/SDF/sdf_db.sdf

> <Rec_index>
1

>  <PLIF_raw>
[[22,20,21,1,1,1,1,1,1],[954,829,829,1650,1653,1657,1659,1655,1651],[62,54,54,112,112,112,112,112,112],[2,7,7,10,10,10,10,10,10],[1.8,2.349075822,4.23076427,0.5,0.5,0.5,0.5,0.5,0.5]]

> <FP:PLIF>
1 16 20 23 15

>  <PLIF_ligidx>
[[20,21],21,22,22,[1,1,1,1,1,1]]

$$$$
129
  MOE2022           3D

 45 48  0  0  1  0  0  0  0  0999 V2000
    8.6190   20.8620   18.5000 C   0  0  0  0  0  0  0  0  0  0  0  0
    8.6180   22.0910   17.8490 C   0  0  0  0  0  0  0  0  0  0  0  0
    7.4180   20.2150   18.7700 C   0  0  0  0  0  0  0  0  0  0  0  0
    6.2080   20.8000   18.3970 C   0  0  0  0  0  0  0  0  0  0  0  0
    6.2140   22.0340   17.7470 C   0  0  0  0  0  0  0  0  0  0  0  0
    7.4160   22.6770   17.4710 C   0  0  0  0  0  0  0  0  0  0  0  0
    4.8930   20.1220   18.7250 C   0  0  0  0  0  0  0  0  0  0  0  0
    4.1300   19.4910   17.5710 C   0  0  0  0  0  0  0  0  0  0  0  0
    4.2250   20.0230   16.3490 N   0  0  0  0  0  0  0  0  0  0  0  0
    3.4980   19.5310   15.3470 C   0  0  0  0  0  0  0  0  0  0  0  0
    2.6160   18.4680   15.5250 C   0  0  0  0  0  0  0  0  0  0  0  0
    3.2890   18.4050   17.8120 C   0  0  0  0  0  0  0  0  0  0  0  0
    1.7510   17.9990   14.3690 C   0  0  1  0  0  0  0  0  0  0  0  0
    2.1980   16.7370   13.7830 N   0  0  0  0  0  0  0  0  0  0  0  0
    2.5260   17.8810   16.7810 C   0  0  0  0  0  0  0  0  0  0  0  0
    0.3540   17.9150   14.7680 O   0  0  0  0  0  0  0  0  0  0  0  0
   -0.3150   19.1610   15.0700 C   0  0  0  0  0  0  0  0  0  0  0  0
    1.9540   15.4810   14.3020 C   0  0  0  0  0  0  0  0  0  0  0  0
    2.9080   16.5950   12.5960 C   0  0  0  0  0  0  0  0  0  0  0  0
    3.3760   17.5640   11.6950 C   0  0  0  0  0  0  0  0  0  0  0  0
    4.0610   17.1300   10.5730 C   0  0  0  0  0  0  0  0  0  0  0  0
    3.1020   15.2330   12.3910 C   0  0  0  0  0  0  0  0  0  0  0  0
    4.2810   15.7500   10.3550 C   0  0  0  0  0  0  0  0  0  0  0  0
    3.8080   14.8050   11.2520 C   0  0  0  0  0  0  0  0  0  0  0  0
    2.4890   14.5550   13.4670 C   0  0  0  0  0  0  0  0  0  0  0  0
    9.5350   20.4200   18.7920 H   0  0  0  0  0  0  0  0  0  0  0  0
    9.5310   22.5820   17.6420 H   0  0  0  0  0  0  0  0  0  0  0  0
    7.4280   19.2800   19.2660 H   0  0  0  0  0  0  0  0  0  0  0  0
    5.3000   22.4880   17.4620 H   0  0  0  0  0  0  0  0  0  0  0  0
    7.4150   23.6140   16.9750 H   0  0  0  0  0  0  0  0  0  0  0  0
    5.0480   19.3840   19.5000 H   0  0  0  0  0  0  0  0  0  0  0  0
    4.2530   20.8640   19.1790 H   0  0  0  0  0  0  0  0  0  0  0  0
    3.5980   19.9880   14.3960 H   0  0  0  0  0  0  0  0  0  0  0  0
    3.2180   17.9880   18.7840 H   0  0  0  0  0  0  0  0  0  0  0  0
    1.7890   18.7570   13.5980 H   0  0  0  0  0  0  0  0  0  0  0  0
    1.8740   17.0630   16.9560 H   0  0  0  0  0  0  0  0  0  0  0  0
   -1.3610   18.9640   15.3070 H   0  0  0  0  0  0  0  0  0  0  0  0
    0.1530   19.6440   15.9290 H   0  0  0  0  0  0  0  0  0  0  0  0
   -0.2690   19.8310   14.2100 H   0  0  0  0  0  0  0  0  0  0  0  0
    1.4170   15.3460   15.2060 H   0  0  0  0  0  0  0  0  0  0  0  0
    3.2100   18.5960   11.8660 H   0  0  0  0  0  0  0  0  0  0  0  0
    4.4260   17.8320    9.8690 H   0  0  0  0  0  0  0  0  0  0  0  0
    4.8110   15.4390    9.4920 H   0  0  0  0  0  0  0  0  0  0  0  0
    3.9720   13.7720   11.0860 H   0  0  0  0  0  0  0  0  0  0  0  0
    2.4410   13.5060   13.6000 H   0  0  0  0  0  0  0  0  0  0  0  0
  1  2  2  0  0  0  0
  1  3  1  0  0  0  0
  1 26  1  0  0  0  0
  2  6  1  0  0  0  0
  2 27  1  0  0  0  0
  3  4  2  0  0  0  0
  3 28  1  0  0  0  0
  4  5  1  0  0  0  0
  4  7  1  0  0  0  0
  5  6  2  0  0  0  0
  5 29  1  0  0  0  0
  6 30  1  0  0  0  0
  7  8  1  0  0  0  0
  7 31  1  0  0  0  0
  7 32  1  0  0  0  0
  8  9  2  0  0  0  0
  8 12  1  0  0  0  0
  9 10  1  0  0  0  0
 10 11  2  0  0  0  0
 10 33  1  0  0  0  0
 11 13  1  0  0  0  0
 11 15  1  0  0  0  0
 12 15  2  0  0  0  0
 12 34  1  0  0  0  0
 13 14  1  0  0  0  0
 13 16  1  0  0  0  0
 13 35  1  0  0  0  0
 14 18  1  0  0  0  0
 14 19  1  0  0  0  0
 15 36  1  0  0  0  0
 16 17  1  0  0  0  0
 17 37  1  0  0  0  0
 17 38  1  0  0  0  0
 17 39  1  0  0  0  0
 18 25  2  0  0  0  0
 18 40  1  0  0  0  0
 19 20  1  0  0  0  0
 19 22  2  0  0  0  0
 20 21  2  0  0  0  0
 20 41  1  0  0  0  0
 21 23  1  0  0  0  0
 21 42  1  0  0  0  0
 22 24  1  0  0  0  0
 22 25  1  0  0  0  0
 23 24  2  0  0  0  0
 23 43  1  0  0  0  0
 24 44  1  0  0  0  0
 25 45  1  0  0  0  0
M  END
> <rseq>
1

> <mseq>
130

> <S>
-5.594923

> <rmsd_refine>
0.8694288

> <E_conf>
78.68147

> <E_score1>
-7.997635

> <E_refine>
-26.27407

> <E_score2>
-5.594923

>  <$File>
outputs/pdb_4j58_cleaned.pdb_2024_06_17__22_47_40_V2_BS398_MIN1_/SDF/sdf_db.sdf

> <Rec_index>
1

>  <PLIF_raw>
[[],[],[],[],[]]

>  <PLIF_ligidx>
[]

$$$$
130
  MOE2022           3D

 43 45  0  0  0  0  0  0  0  0999 V2000
    6.1380   20.7690   18.7320 C   0  0  0  0  0  0  0  0  0  0  0  0
    5.3280   19.6400   18.6840 C   0  0  0  0  0  0  0  0  0  0  0  0
    4.1100   19.6520   17.9920 C   0  0  0  0  0  0  0  0  0  0  0  0
    3.2390   18.4690   17.9470 C   0  0  0  0  0  0  0  0  0  0  0  0
    2.5750   18.1230   16.7630 C   0  0  0  0  0  0  0  0  0  0  0  0
    3.0210   17.6870   19.0880 C   0  0  0  0  0  0  0  0  0  0  0  0
    2.0920   16.6380   19.0930 C   0  0  0  0  0  0  0  0  0  0  0  0
    1.6740   17.0610   16.7330 C   0  0  0  0  0  0  0  0  0  0  0  0
    1.8180   15.8690   20.3170 C   0  0  0  0  0  0  0  0  0  0  0  0
    1.4170   16.3480   17.9000 C   0  0  0  0  0  0  0  0  0  0  0  0
    0.9320   16.6890   15.4620 C   0  0  0  0  0  0  0  0  0  0  0  0
    3.7240   20.8410   17.3550 C   0  0  0  0  0  0  0  0  0  0  0  0
    1.7130   16.8420   14.2310 N   0  0  0  0  0  0  0  0  0  0  0  0
    2.3270   15.8110   13.5560 C   0  0  0  0  0  0  0  0  0  0  0  0
    2.2280   14.6690   14.0020 O   0  0  0  0  0  0  0  0  0  0  0  0
    3.0750   16.1250   12.3320 C   0  0  0  0  0  0  0  0  0  0  0  0
    0.8320   15.0790   20.3680 O   0  0  0  0  0  0  0  0  0  0  0  0
    3.7660   15.1200   11.6380 C   0  0  0  0  0  0  0  0  0  0  0  0
    5.7420   21.9370   18.0910 C   0  0  0  0  0  0  0  0  0  0  0  0
    4.5330   21.9710   17.4040 C   0  0  0  0  0  0  0  0  0  0  0  0
    3.1000   17.3990   11.8800 N   0  0  0  0  0  0  0  0  0  0  0  0
    3.7770   17.7040   10.7780 C   0  0  0  0  0  0  0  0  0  0  0  0
    2.5670   16.0030   21.3210 O   0  5  0  0  0  0  0  0  0  0  0  0
    4.4950   15.4280   10.4980 C   0  0  0  0  0  0  0  0  0  0  0  0
    5.2880   14.3680    9.7640 C   0  0  0  0  0  0  0  0  0  0  0  0
    4.4900   16.7460   10.0630 C   0  0  0  0  0  0  0  0  0  0  0  0
    7.0580   20.7380   19.2560 H   0  0  0  0  0  0  0  0  0  0  0  0
    5.6430   18.7630   19.1760 H   0  0  0  0  0  0  0  0  0  0  0  0
    2.7550   18.6840   15.8830 H   0  0  0  0  0  0  0  0  0  0  0  0
    3.5470   17.9120   19.9770 H   0  0  0  0  0  0  0  0  0  0  0  0
    0.6970   15.5700   17.8860 H   0  0  0  0  0  0  0  0  0  0  0  0
    0.5620   15.6750   15.5420 H   0  0  0  0  0  0  0  0  0  0  0  0
    0.0430   17.3000   15.3880 H   0  0  0  0  0  0  0  0  0  0  0  0
    2.8000   20.8860   16.8380 H   0  0  0  0  0  0  0  0  0  0  0  0
    1.8300   17.7980   13.8630 H   0  0  0  0  0  0  0  0  0  0  0  0
    3.7430   14.1220   11.9940 H   0  0  0  0  0  0  0  0  0  0  0  0
    6.3590   22.7980   18.1260 H   0  0  0  0  0  0  0  0  0  0  0  0
    4.2260   22.8610   16.9180 H   0  0  0  0  0  0  0  0  0  0  0  0
    3.7660   18.7120   10.4500 H   0  0  0  0  0  0  0  0  0  0  0  0
    5.2700   14.5450    8.6880 H   0  0  0  0  0  0  0  0  0  0  0  0
    6.3270   14.3740   10.0960 H   0  0  0  0  0  0  0  0  0  0  0  0
    4.8770   13.3750    9.9500 H   0  0  0  0  0  0  0  0  0  0  0  0
    5.0260   17.0260    9.1930 H   0  0  0  0  0  0  0  0  0  0  0  0
  1  2  1  0  0  0  0
  1 19  2  0  0  0  0
  1 27  1  0  0  0  0
  2  3  2  0  0  0  0
  2 28  1  0  0  0  0
  3  4  1  0  0  0  0
  3 12  1  0  0  0  0
  4  5  1  0  0  0  0
  4  6  2  0  0  0  0
  5  8  2  0  0  0  0
  5 29  1  0  0  0  0
  6  7  1  0  0  0  0
  6 30  1  0  0  0  0
  7  9  1  0  0  0  0
  7 10  2  0  0  0  0
  8 10  1  0  0  0  0
  8 11  1  0  0  0  0
  9 17  2  0  0  0  0
  9 23  1  0  0  0  0
 10 31  1  0  0  0  0
 11 13  1  0  0  0  0
 11 32  1  0  0  0  0
 11 33  1  0  0  0  0
 12 20  2  0  0  0  0
 12 34  1  0  0  0  0
 13 14  1  0  0  0  0
 13 35  1  0  0  0  0
 14 15  2  0  0  0  0
 14 16  1  0  0  0  0
 16 18  1  0  0  0  0
 16 21  2  0  0  0  0
 18 24  2  0  0  0  0
 18 36  1  0  0  0  0
 19 20  1  0  0  0  0
 19 37  1  0  0  0  0
 20 38  1  0  0  0  0
 21 22  1  0  0  0  0
 22 26  2  0  0  0  0
 22 39  1  0  0  0  0
 24 25  1  0  0  0  0
 24 26  1  0  0  0  0
 25 40  1  0  0  0  0
 25 41  1  0  0  0  0
 25 42  1  0  0  0  0
 26 43  1  0  0  0  0
M  CHG  1  23  -1
M  END
> <rseq>
1

> <mseq>
131

> <S>
-5.859706

> <rmsd_refine>
1.766118

> <E_conf>
-34.63998

> <E_score1>
-9.655991

> <E_refine>
-34.27627

> <E_score2>
-5.859706

>  <$File>
outputs/pdb_4j58_cleaned.pdb_2024_06_17__22_47_40_V2_BS398_MIN1_/SDF/sdf_db.sdf

> <Rec_index>
1

>  <PLIF_raw>
[[17,17,17,4,6,7,10,8,5],[1212,1206,1212,954,954,954,954,954,954],[81,81,81,62,62,62,62,62,62],[2,7,7,10,10,10,10,10,10],[7.6,1.470808038,4.313000984,0.6,0.6,0.6,0.6,0.6,0.6]]

> <FP:PLIF>
21 17 18 24 25

>  <PLIF_ligidx>
[[4,6,7,10,8,5],17,17,[17,17],17]

$$$$
131
  MOE2022           3D

 56 58  0  0  1  0  0  0  0  0999 V2000
    6.2550   20.9450   18.3480 C   0  0  0  0  0  0  0  0  0  0  0  0
    5.5930   21.9720   17.6840 C   0  0  0  0  0  0  0  0  0  0  0  0
    5.5850   19.7640   18.6480 C   0  0  0  0  0  0  0  0  0  0  0  0
    4.2580   21.8170   17.3220 C   0  0  0  0  0  0  0  0  0  0  0  0
    4.2440   19.5890   18.2790 C   0  0  0  0  0  0  0  0  0  0  0  0
    3.5860   20.6370   17.6190 C   0  0  0  0  0  0  0  0  0  0  0  0
    3.5400   18.3480   18.6180 C   0  0  0  0  0  0  0  0  0  0  0  0
    2.6390   17.7780   17.7270 N   0  0  0  0  0  0  0  0  0  0  0  0
    3.0040   17.7370   16.2990 C   0  0  0  0  0  0  0  0  0  0  0  0
    3.7310   17.7840   19.6910 O   0  0  0  0  0  0  0  0  0  0  0  0
    1.6860   16.7120   18.1500 C   0  0  1  0  0  0  0  0  0  0  0  0
    1.0750   17.0040   19.4450 N   0  0  0  0  0  0  0  0  0  0  0  0
    0.5620   16.4820   17.1130 C   0  0  0  0  0  0  0  0  0  0  0  0
    1.0230   16.3620   15.7140 N   0  0  0  0  0  0  0  0  0  0  0  0
   -0.1540   16.2200   14.8430 C   0  0  0  0  0  0  0  0  0  0  0  0
    0.1770   15.8750   13.3850 C   0  0  0  0  0  0  0  0  0  0  0  0
    1.0880   14.6470   13.2600 C   0  0  0  0  0  0  0  0  0  0  0  0
    0.6350   16.0310   20.2990 C   0  0  0  0  0  0  0  0  0  0  0  0
    1.3350   14.1770   11.8550 N   0  3  0  0  0  0  0  0  0  0  0  0
    0.1000   13.7540   11.1070 C   0  0  0  0  0  0  0  0  0  0  0  0
    2.2820   13.0270   11.7570 C   0  0  0  0  0  0  0  0  0  0  0  0
    0.6360   14.8350   20.0110 O   0  0  0  0  0  0  0  0  0  0  0  0
    0.1850   16.4940   21.4980 N   0  0  0  0  0  0  0  0  0  0  0  0
    1.8550   12.1610   10.5730 C   0  0  0  0  0  0  0  0  0  0  0  0
    0.3520   12.3960   10.4460 C   0  0  0  0  0  0  0  0  0  0  0  0
    1.7950   17.5660   15.3730 C   0  0  0  0  0  0  0  0  0  0  0  0
    7.2710   21.0630   18.6280 H   0  0  0  0  0  0  0  0  0  0  0  0
    6.1030   22.8720   17.4560 H   0  0  0  0  0  0  0  0  0  0  0  0
    6.0990   18.9940   19.1600 H   0  0  0  0  0  0  0  0  0  0  0  0
    3.7510   22.6030   16.8220 H   0  0  0  0  0  0  0  0  0  0  0  0
    2.5660   20.5360   17.3520 H   0  0  0  0  0  0  0  0  0  0  0  0
    3.5490   18.6180   15.9960 H   0  0  0  0  0  0  0  0  0  0  0  0
    3.6830   16.9110   16.1370 H   0  0  0  0  0  0  0  0  0  0  0  0
    2.2480   15.7910   18.2360 H   0  0  0  0  0  0  0  0  0  0  0  0
    1.0870   17.9850   19.7560 H   0  0  0  0  0  0  0  0  0  0  0  0
    0.0140   15.5890   17.3840 H   0  0  0  0  0  0  0  0  0  0  0  0
   -0.1440   17.3000   17.1810 H   0  0  0  0  0  0  0  0  0  0  0  0
   -0.7820   15.4330   15.2420 H   0  0  0  0  0  0  0  0  0  0  0  0
   -0.7510   17.1220   14.8810 H   0  0  0  0  0  0  0  0  0  0  0  0
   -0.7640   15.6790   12.8730 H   0  0  0  0  0  0  0  0  0  0  0  0
    0.6570   16.7240   12.8990 H   0  0  0  0  0  0  0  0  0  0  0  0
    2.0210   14.8760   13.7600 H   0  0  0  0  0  0  0  0  0  0  0  0
    0.6680   13.8580   13.8660 H   0  0  0  0  0  0  0  0  0  0  0  0
    1.7440   14.9440   11.3400 H   0  0  0  0  0  0  0  0  0  0  0  0
   -0.7700   13.6800   11.7460 H   0  0  0  0  0  0  0  0  0  0  0  0
   -0.1740   14.4760   10.3490 H   0  0  0  0  0  0  0  0  0  0  0  0
    3.3190   13.3230   11.6630 H   0  0  0  0  0  0  0  0  0  0  0  0
    2.2440   12.4150   12.6490 H   0  0  0  0  0  0  0  0  0  0  0  0
   -0.1730   16.7590   22.4280 H   0  0  0  0  0  0  0  0  0  0  0  0
    0.3380   17.4940   21.3070 H   0  0  0  0  0  0  0  0  0  0  0  0
    2.3550   12.5280    9.6750 H   0  0  0  0  0  0  0  0  0  0  0  0
    2.0860   11.1090   10.7280 H   0  0  0  0  0  0  0  0  0  0  0  0
   -0.1850   11.6280   11.0040 H   0  0  0  0  0  0  0  0  0  0  0  0
    0.0330   12.3930    9.4030 H   0  0  0  0  0  0  0  0  0  0  0  0
    1.1610   18.4410   15.4350 H   0  0  0  0  0  0  0  0  0  0  0  0
    2.1470   17.5050   14.3530 H   0  0  0  0  0  0  0  0  0  0  0  0
  1  2  2  0  0  0  0
  1  3  1  0  0  0  0
  1 27  1  0  0  0  0
  2  4  1  0  0  0  0
  2 28  1  0  0  0  0
  3  5  2  0  0  0  0
  3 29  1  0  0  0  0
  4  6  2  0  0  0  0
  4 30  1  0  0  0  0
  5  6  1  0  0  0  0
  5  7  1  0  0  0  0
  6 31  1  0  0  0  0
  7  8  1  0  0  0  0
  7 10  2  0  0  0  0
  8  9  1  0  0  0  0
  8 11  1  0  0  0  0
  9 26  1  0  0  0  0
  9 32  1  0  0  0  0
  9 33  1  0  0  0  0
 11 12  1  0  0  0  0
 11 13  1  0  0  0  0
 11 34  1  0  0  0  0
 12 18  1  0  0  0  0
 12 35  1  0  0  0  0
 13 14  1  0  0  0  0
 13 36  1  0  0  0  0
 13 37  1  0  0  0  0
 14 15  1  0  0  0  0
 14 26  1  0  0  0  0
 15 16  1  0  0  0  0
 15 38  1  0  0  0  0
 15 39  1  0  0  0  0
 16 17  1  0  0  0  0
 16 40  1  0  0  0  0
 16 41  1  0  0  0  0
 17 19  1  0  0  0  0
 17 42  1  0  0  0  0
 17 43  1  0  0  0  0
 18 22  2  0  0  0  0
 18 23  1  0  0  0  0
 19 20  1  0  0  0  0
 19 21  1  0  0  0  0
 19 44  1  0  0  0  0
 20 25  1  0  0  0  0
 20 45  1  0  0  0  0
 20 46  1  0  0  0  0
 21 24  1  0  0  0  0
 21 47  1  0  0  0  0
 21 48  1  0  0  0  0
 23 49  1  0  0  0  0
 23 50  1  0  0  0  0
 24 25  1  0  0  0  0
 24 51  1  0  0  0  0
 24 52  1  0  0  0  0
 25 53  1  0  0  0  0
 25 54  1  0  0  0  0
 26 55  1  0  0  0  0
 26 56  1  0  0  0  0
M  CHG  1  19   1
M  END
> <rseq>
1

> <mseq>
132

> <S>
-5.80738

> <rmsd_refine>
2.81235

> <E_conf>
-56.91994

> <E_score1>
-8.961723

> <E_refine>
-29.4946

> <E_score2>
-5.80738

>  <$File>
outputs/pdb_4j58_cleaned.pdb_2024_06_17__22_47_40_V2_BS398_MIN1_/SDF/sdf_db.sdf

> <Rec_index>
1

>  <PLIF_raw>
[22,1212,81,2,6.8]

> <FP:PLIF>
17 18

>  <PLIF_ligidx>
[22,22]

$$$$
144
  MOE2022           3D

 53 54  0  0  1  0  0  0  0  0999 V2000
    6.3000   21.0250   18.5830 C   0  0  0  0  0  0  0  0  0  0  0  0
    5.6420   22.1020   17.9980 C   0  0  0  0  0  0  0  0  0  0  0  0
    5.6380   19.8150   18.7540 C   0  0  0  0  0  0  0  0  0  0  0  0
    4.3190   21.9680   17.5860 C   0  0  0  0  0  0  0  0  0  0  0  0
    4.3080   19.6630   18.3380 C   0  0  0  0  0  0  0  0  0  0  0  0
    3.6550   20.7580   17.7560 C   0  0  0  0  0  0  0  0  0  0  0  0
    3.6090   18.3920   18.5480 C   0  0  0  0  0  0  0  0  0  0  0  0
    2.8600   17.8130   17.5240 N   0  0  0  0  0  0  0  0  0  0  0  0
    3.4210   17.9170   16.1480 C   0  0  0  0  0  0  0  0  0  0  0  0
    3.6930   17.7980   19.6190 O   0  0  0  0  0  0  0  0  0  0  0  0
    1.9680   16.6390   17.8150 C   0  0  1  0  0  0  0  0  0  0  0  0
    1.1590   16.8450   19.0200 N   0  0  0  0  0  0  0  0  0  0  0  0
    1.0730   16.2550   16.6110 C   0  0  0  0  0  0  0  0  0  0  0  0
    1.7940   16.1710   15.2880 N   0  3  1  0  0  0  0  0  0  0  0  0
    0.9160   15.6950   14.1530 C   0  0  0  0  0  0  0  0  0  0  0  0
    1.5360   15.7090   12.7410 C   0  0  0  0  0  0  0  0  0  0  0  0
    2.7510   14.7830   12.5500 C   0  0  0  0  0  0  0  0  0  0  0  0
    0.6250   15.8460   19.7340 C   0  0  0  0  0  0  0  0  0  0  0  0
    3.5080   15.1490   11.2590 C   0  0  0  0  0  0  0  0  0  0  0  0
    4.6290   14.1490   10.9170 C   0  0  0  0  0  0  0  0  0  0  0  0
    0.5410   14.6890   19.3370 O   0  0  0  0  0  0  0  0  0  0  0  0
    5.6210   14.6870    9.8830 C   0  0  0  0  0  0  0  0  0  0  0  0
    2.4730   17.4790   15.0260 C   0  0  0  0  0  0  0  0  0  0  0  0
    0.1240   16.1750   21.1320 C   0  0  0  0  0  0  0  0  0  0  0  0
    6.2710   15.7110   10.1940 O   0  5  0  0  0  0  0  0  0  0  0  0
    5.7330   14.0540    8.8120 O   0  0  0  0  0  0  0  0  0  0  0  0
    7.3070   21.1280   18.8990 H   0  0  0  0  0  0  0  0  0  0  0  0
    6.1470   23.0250   17.8670 H   0  0  0  0  0  0  0  0  0  0  0  0
    6.1480   19.0050   19.2050 H   0  0  0  0  0  0  0  0  0  0  0  0
    3.8170   22.7900   17.1450 H   0  0  0  0  0  0  0  0  0  0  0  0
    2.6430   20.6700   17.4520 H   0  0  0  0  0  0  0  0  0  0  0  0
    3.7530   18.9210   15.9280 H   0  0  0  0  0  0  0  0  0  0  0  0
    4.3100   17.3060   16.0870 H   0  0  0  0  0  0  0  0  0  0  0  0
    2.6160   15.7920   18.0020 H   0  0  0  0  0  0  0  0  0  0  0  0
    1.2010   17.7640   19.4370 H   0  0  0  0  0  0  0  0  0  0  0  0
    0.5630   15.3320   16.8500 H   0  0  0  0  0  0  0  0  0  0  0  0
    0.2750   16.9840   16.5620 H   0  0  0  0  0  0  0  0  0  0  0  0
    2.5210   15.4770   15.3960 H   0  0  0  0  0  0  0  0  0  0  0  0
    0.5570   14.6930   14.3470 H   0  0  0  0  0  0  0  0  0  0  0  0
    0.0100   16.2860   14.1090 H   0  0  0  0  0  0  0  0  0  0  0  0
    0.7630   15.4090   12.0330 H   0  0  0  0  0  0  0  0  0  0  0  0
    1.8170   16.7330   12.4970 H   0  0  0  0  0  0  0  0  0  0  0  0
    3.4320   14.8830   13.3950 H   0  0  0  0  0  0  0  0  0  0  0  0
    2.4090   13.7480   12.4970 H   0  0  0  0  0  0  0  0  0  0  0  0
    2.8110   15.1830   10.4200 H   0  0  0  0  0  0  0  0  0  0  0  0
    3.9400   16.1420   11.3840 H   0  0  0  0  0  0  0  0  0  0  0  0
    5.1940   13.9000   11.8100 H   0  0  0  0  0  0  0  0  0  0  0  0
    4.1810   13.2270   10.5440 H   0  0  0  0  0  0  0  0  0  0  0  0
    1.7450   18.2660   14.8820 H   0  0  0  0  0  0  0  0  0  0  0  0
    3.0350   17.4620   14.1020 H   0  0  0  0  0  0  0  0  0  0  0  0
   -0.7990   15.6300   21.3220 H   0  0  0  0  0  0  0  0  0  0  0  0
    0.8890   15.9030   21.8600 H   0  0  0  0  0  0  0  0  0  0  0  0
   -0.0800   17.2330   21.2280 H   0  0  0  0  0  0  0  0  0  0  0  0
  1  2  2  0  0  0  0
  1  3  1  0  0  0  0
  1 27  1  0  0  0  0
  2  4  1  0  0  0  0
  2 28  1  0  0  0  0
  3  5  2  0  0  0  0
  3 29  1  0  0  0  0
  4  6  2  0  0  0  0
  4 30  1  0  0  0  0
  5  6  1  0  0  0  0
  5  7  1  0  0  0  0
  6 31  1  0  0  0  0
  7  8  1  0  0  0  0
  7 10  2  0  0  0  0
  8  9  1  0  0  0  0
  8 11  1  0  0  0  0
  9 23  1  0  0  0  0
  9 32  1  0  0  0  0
  9 33  1  0  0  0  0
 11 12  1  0  0  0  0
 11 13  1  0  0  0  0
 11 34  1  0  0  0  0
 12 18  1  0  0  0  0
 12 35  1  0  0  0  0
 13 14  1  0  0  0  0
 13 36  1  0  0  0  0
 13 37  1  0  0  0  0
 14 15  1  0  0  0  0
 14 23  1  0  0  0  0
 14 38  1  0  0  0  0
 15 16  1  0  0  0  0
 15 39  1  0  0  0  0
 15 40  1  0  0  0  0
 16 17  1  0  0  0  0
 16 41  1  0  0  0  0
 16 42  1  0  0  0  0
 17 19  1  0  0  0  0
 17 43  1  0  0  0  0
 17 44  1  0  0  0  0
 18 21  2  0  0  0  0
 18 24  1  0  0  0  0
 19 20  1  0  0  0  0
 19 45  1  0  0  0  0
 19 46  1  0  0  0  0
 20 22  1  0  0  0  0
 20 47  1  0  0  0  0
 20 48  1  0  0  0  0
 22 25  1  0  0  0  0
 22 26  2  0  0  0  0
 23 49  1  0  0  0  0
 23 50  1  0  0  0  0
 24 51  1  0  0  0  0
 24 52  1  0  0  0  0
 24 53  1  0  0  0  0
M  CHG  1  14   1
M  CHG  1  25  -1
M  END
> <rseq>
1

> <mseq>
145

> <S>
-6.236384

> <rmsd_refine>
1.782999

> <E_conf>
-122.6795

> <E_score1>
-10.16925

> <E_refine>
-32.80741

> <E_score2>
-6.236384

>  <$File>
outputs/pdb_4j58_cleaned.pdb_2024_06_17__22_47_40_V2_BS398_MIN1_/SDF/sdf_db.sdf

> <Rec_index>
1

>  <PLIF_raw>
[[21,25,25],[1212,823,823],[81,54,54],[2,2,7],[2.7,7.9,4.791901838]]

> <FP:PLIF>
6 19 1 16 17 18

>  <PLIF_ligidx>
[25,25,25,25,21,21]

$$$$
145
  MOE2022           3D

 46 48  0  0  0  0  0  0  0  0999 V2000
    6.1150   14.7240    9.8730 C   0  0  0  0  0  0  0  0  0  0  0  0
    5.8290   15.6640    8.8890 C   0  0  0  0  0  0  0  0  0  0  0  0
    4.5150   16.0590    8.6670 C   0  0  0  0  0  0  0  0  0  0  0  0
    3.4880   15.5150    9.4300 C   0  0  0  0  0  0  0  0  0  0  0  0
    5.0870   14.1810   10.6380 C   0  0  0  0  0  0  0  0  0  0  0  0
    3.7670   14.5750   10.4210 C   0  0  0  0  0  0  0  0  0  0  0  0
    2.6370   14.0310   11.2710 C   0  0  0  0  0  0  0  0  0  0  0  0
    2.1140   15.0860   12.2160 C   0  0  0  0  0  0  0  0  0  0  0  0
    1.2410   15.8690   11.8920 O   0  0  0  0  0  0  0  0  0  0  0  0
    2.7180   15.1670   13.4560 N   0  0  0  0  0  0  0  0  0  0  0  0
    2.6430   16.2750   14.3080 C   0  0  0  0  0  0  0  0  0  0  0  0
    2.4660   17.5840   13.9180 C   0  0  0  0  0  0  0  0  0  0  0  0
    2.4380   18.6020   14.8980 C   0  0  0  0  0  0  0  0  0  0  0  0
    2.5770   18.2910   16.2240 C   0  0  0  0  0  0  0  0  0  0  0  0
    2.5800   19.3820   17.2760 C   0  0  0  0  0  0  0  0  0  0  0  0
    2.7970   15.9550   15.6380 N   0  0  0  0  0  0  0  0  0  0  0  0
    2.7540   16.9230   16.6260 C   0  0  0  0  0  0  0  0  0  0  0  0
    3.9700   19.6450   17.8050 C   0  0  0  0  0  0  0  0  0  0  0  0
    4.7130   20.5230   17.2880 N   0  0  0  0  0  0  0  0  0  0  0  0
    2.8820   16.5250   17.7930 O   0  0  0  0  0  0  0  0  0  0  0  0
    6.0610   20.8040   17.6980 C   0  0  0  0  0  0  0  0  0  0  0  0
    6.7090   21.9460   17.2010 C   0  0  0  0  0  0  0  0  0  0  0  0
    6.7730   19.9640   18.5620 C   0  0  0  0  0  0  0  0  0  0  0  0
    8.0910   20.2520   18.8980 C   0  0  0  0  0  0  0  0  0  0  0  0
    8.7140   21.3960   18.4060 C   0  0  0  0  0  0  0  0  0  0  0  0
    6.0600   22.7970   16.3480 O   0  0  0  0  0  0  0  0  0  0  0  0
    8.0230   22.2480   17.5530 C   0  0  0  0  0  0  0  0  0  0  0  0
    7.1150   14.4180   10.0420 H   0  0  0  0  0  0  0  0  0  0  0  0
    6.6050   16.0830    8.3040 H   0  0  0  0  0  0  0  0  0  0  0  0
    4.2960   16.7740    7.9160 H   0  0  0  0  0  0  0  0  0  0  0  0
    2.4890   15.8250    9.2590 H   0  0  0  0  0  0  0  0  0  0  0  0
    5.3160   13.4680   11.3880 H   0  0  0  0  0  0  0  0  0  0  0  0
    1.8340   13.6950   10.6280 H   0  0  0  0  0  0  0  0  0  0  0  0
    2.9550   13.1560   11.8180 H   0  0  0  0  0  0  0  0  0  0  0  0
    3.2920   14.3640   13.7570 H   0  0  0  0  0  0  0  0  0  0  0  0
    2.3690   17.8460   12.8970 H   0  0  0  0  0  0  0  0  0  0  0  0
    2.3140   19.6090   14.5930 H   0  0  0  0  0  0  0  0  0  0  0  0
    2.1620   20.2930   16.8690 H   0  0  0  0  0  0  0  0  0  0  0  0
    1.9250   19.1020   18.0890 H   0  0  0  0  0  0  0  0  0  0  0  0
    2.8970   14.9690   15.9260 H   0  0  0  0  0  0  0  0  0  0  0  0
    4.2930   19.0360   18.6080 H   0  0  0  0  0  0  0  0  0  0  0  0
    6.3300   19.0930   18.9610 H   0  0  0  0  0  0  0  0  0  0  0  0
    8.6220   19.5920   19.5280 H   0  0  0  0  0  0  0  0  0  0  0  0
    9.7140   21.6110   18.6800 H   0  0  0  0  0  0  0  0  0  0  0  0
    6.6320   23.5490   16.1040 H   0  0  0  0  0  0  0  0  0  0  0  0
    8.4960   23.1160   17.1740 H   0  0  0  0  0  0  0  0  0  0  0  0
  1  2  1  0  0  0  0
  1  5  2  0  0  0  0
  1 28  1  0  0  0  0
  2  3  2  0  0  0  0
  2 29  1  0  0  0  0
  3  4  1  0  0  0  0
  3 30  1  0  0  0  0
  4  6  2  0  0  0  0
  4 31  1  0  0  0  0
  5  6  1  0  0  0  0
  5 32  1  0  0  0  0
  6  7  1  0  0  0  0
  7  8  1  0  0  0  0
  7 33  1  0  0  0  0
  7 34  1  0  0  0  0
  8  9  2  0  0  0  0
  8 10  1  0  0  0  0
 10 11  1  0  0  0  0
 10 35  1  0  0  0  0
 11 12  2  0  0  0  0
 11 16  1  0  0  0  0
 12 13  1  0  0  0  0
 12 36  1  0  0  0  0
 13 14  2  0  0  0  0
 13 37  1  0  0  0  0
 14 15  1  0  0  0  0
 14 17  1  0  0  0  0
 15 18  1  0  0  0  0
 15 38  1  0  0  0  0
 15 39  1  0  0  0  0
 16 17  1  0  0  0  0
 16 40  1  0  0  0  0
 17 20  2  0  0  0  0
 18 19  2  0  0  0  0
 18 41  1  0  0  0  0
 19 21  1  0  0  0  0
 21 22  1  0  0  0  0
 21 23  2  0  0  0  0
 22 26  1  0  0  0  0
 22 27  2  0  0  0  0
 23 24  1  0  0  0  0
 23 42  1  0  0  0  0
 24 25  2  0  0  0  0
 24 43  1  0  0  0  0
 25 27  1  0  0  0  0
 25 44  1  0  0  0  0
 26 45  1  0  0  0  0
 27 46  1  0  0  0  0
M  END
> <rseq>
1

> <mseq>
146

> <S>
-6.131306

> <rmsd_refine>
1.289053

> <E_conf>
-82.60175

> <E_score1>
-9.401697

> <E_refine>
-32.50367

> <E_score2>
-6.131306

>  <$File>
outputs/pdb_4j58_cleaned.pdb_2024_06_17__22_47_40_V2_BS398_MIN1_/SDF/sdf_db.sdf

> <Rec_index>
1

>  <PLIF_raw>
[[10,16,20,1,5,6,4,3,2],[1056,1071,954,823,823,823,823,823,823],[70,71,62,54,54,54,54,54,54],[3,3,2,10,10,10,10,10,10],[0.6,1.3,0.7,1.4,1.4,1.4,1.4,1.4,1.4]]

> <FP:PLIF>
2 5 20 3 7

>  <PLIF_ligidx>
[[1,5,6,4,3,2],[1,5,6,4,3,2],20,10,16]

$$$$
146
  MOE2022           3D

 50 51  0  0  1  0  0  0  0  0999 V2000
    6.3180   21.0020   18.5010 C   0  0  0  0  0  0  0  0  0  0  0  0
    5.6650   22.0780   17.9090 C   0  0  0  0  0  0  0  0  0  0  0  0
    5.6420   19.8060   18.7090 C   0  0  0  0  0  0  0  0  0  0  0  0
    4.3320   21.9560   17.5270 C   0  0  0  0  0  0  0  0  0  0  0  0
    4.3020   19.6650   18.3210 C   0  0  0  0  0  0  0  0  0  0  0  0
    3.6530   20.7610   17.7330 C   0  0  0  0  0  0  0  0  0  0  0  0
    3.5890   18.4100   18.5730 C   0  0  0  0  0  0  0  0  0  0  0  0
    2.7620   17.8470   17.6030 N   0  0  0  0  0  0  0  0  0  0  0  0
    3.2330   17.9230   16.1910 C   0  0  0  0  0  0  0  0  0  0  0  0
    3.7160   17.8170   19.6400 O   0  0  0  0  0  0  0  0  0  0  0  0
    1.8610   16.7040   17.9780 C   0  0  1  0  0  0  0  0  0  0  0  0
    1.0720   17.0090   19.1730 N   0  0  0  0  0  0  0  0  0  0  0  0
    0.9170   16.2670   16.8350 C   0  0  0  0  0  0  0  0  0  0  0  0
    1.5540   16.1790   15.4760 N   0  3  1  0  0  0  0  0  0  0  0  0
    0.6270   15.6390   14.4140 C   0  0  0  0  0  0  0  0  0  0  0  0
    1.1130   15.6930   12.9520 C   0  0  0  0  0  0  0  0  0  0  0  0
    2.4750   15.0560   12.6660 C   0  0  0  0  0  0  0  0  0  0  0  0
    0.6550   16.0330   20.0400 C   0  0  0  0  0  0  0  0  0  0  0  0
    2.7720   14.8800   11.3720 N   0  0  0  0  0  0  0  0  0  0  0  0
    2.2010   17.4850   15.1460 C   0  0  0  0  0  0  0  0  0  0  0  0
    3.2410   14.7700   13.5850 O   0  0  0  0  0  0  0  0  0  0  0  0
    4.0820   14.4760   10.8500 C   0  0  0  0  0  0  0  0  0  0  0  0
    0.6590   14.8350   19.7550 O   0  0  0  0  0  0  0  0  0  0  0  0
    0.2240   16.4930   21.2460 N   0  0  0  0  0  0  0  0  0  0  0  0
    4.9880   15.6620   10.4810 C   0  0  0  0  0  0  0  0  0  0  0  0
    4.4950   16.8130   10.4790 O   0  5  0  0  0  0  0  0  0  0  0  0
    6.1870   15.4040   10.2330 O   0  0  0  0  0  0  0  0  0  0  0  0
    7.3330   21.0950   18.7950 H   0  0  0  0  0  0  0  0  0  0  0  0
    6.1820   22.9900   17.7510 H   0  0  0  0  0  0  0  0  0  0  0  0
    6.1480   18.9970   19.1660 H   0  0  0  0  0  0  0  0  0  0  0  0
    3.8330   22.7780   17.0810 H   0  0  0  0  0  0  0  0  0  0  0  0
    2.6340   20.6840   17.4520 H   0  0  0  0  0  0  0  0  0  0  0  0
    3.5660   18.9170   15.9340 H   0  0  0  0  0  0  0  0  0  0  0  0
    4.1070   17.2950   16.0810 H   0  0  0  0  0  0  0  0  0  0  0  0
    2.4970   15.8560   18.2030 H   0  0  0  0  0  0  0  0  0  0  0  0
    1.1590   17.9710   19.5320 H   0  0  0  0  0  0  0  0  0  0  0  0
    0.4540   15.3330   17.1230 H   0  0  0  0  0  0  0  0  0  0  0  0
    0.0930   16.9680   16.8190 H   0  0  0  0  0  0  0  0  0  0  0  0
    2.3060   15.5030   15.5470 H   0  0  0  0  0  0  0  0  0  0  0  0
    0.3750   14.6100   14.6310 H   0  0  0  0  0  0  0  0  0  0  0  0
   -0.3270   16.1470   14.4500 H   0  0  0  0  0  0  0  0  0  0  0  0
    0.3650   15.1910   12.3380 H   0  0  0  0  0  0  0  0  0  0  0  0
    1.1470   16.7330   12.6260 H   0  0  0  0  0  0  0  0  0  0  0  0
    2.0950   15.1700   10.6820 H   0  0  0  0  0  0  0  0  0  0  0  0
    1.4620   18.2700   15.0550 H   0  0  0  0  0  0  0  0  0  0  0  0
    2.6880   17.4600   14.1810 H   0  0  0  0  0  0  0  0  0  0  0  0
    4.6010   13.8620   11.5850 H   0  0  0  0  0  0  0  0  0  0  0  0
    3.9310   13.8740    9.9550 H   0  0  0  0  0  0  0  0  0  0  0  0
   -0.1170   16.7570   22.1830 H   0  0  0  0  0  0  0  0  0  0  0  0
    0.3600   17.4960   21.0510 H   0  0  0  0  0  0  0  0  0  0  0  0
  1  2  2  0  0  0  0
  1  3  1  0  0  0  0
  1 28  1  0  0  0  0
  2  4  1  0  0  0  0
  2 29  1  0  0  0  0
  3  5  2  0  0  0  0
  3 30  1  0  0  0  0
  4  6  2  0  0  0  0
  4 31  1  0  0  0  0
  5  6  1  0  0  0  0
  5  7  1  0  0  0  0
  6 32  1  0  0  0  0
  7  8  1  0  0  0  0
  7 10  2  0  0  0  0
  8  9  1  0  0  0  0
  8 11  1  0  0  0  0
  9 20  1  0  0  0  0
  9 33  1  0  0  0  0
  9 34  1  0  0  0  0
 11 12  1  0  0  0  0
 11 13  1  0  0  0  0
 11 35  1  0  0  0  0
 12 18  1  0  0  0  0
 12 36  1  0  0  0  0
 13 14  1  0  0  0  0
 13 37  1  0  0  0  0
 13 38  1  0  0  0  0
 14 15  1  0  0  0  0
 14 20  1  0  0  0  0
 14 39  1  0  0  0  0
 15 16  1  0  0  0  0
 15 40  1  0  0  0  0
 15 41  1  0  0  0  0
 16 17  1  0  0  0  0
 16 42  1  0  0  0  0
 16 43  1  0  0  0  0
 17 19  1  0  0  0  0
 17 21  2  0  0  0  0
 18 23  2  0  0  0  0
 18 24  1  0  0  0  0
 19 22  1  0  0  0  0
 19 44  1  0  0  0  0
 20 45  1  0  0  0  0
 20 46  1  0  0  0  0
 22 25  1  0  0  0  0
 22 47  1  0  0  0  0
 22 48  1  0  0  0  0
 24 49  1  0  0  0  0
 24 50  1  0  0  0  0
 25 26  1  0  0  0  0
 25 27  2  0  0  0  0
M  CHG  1  14   1
M  CHG  1  26  -1
M  END
> <rseq>
1

> <mseq>
147

> <S>
-6.13851

> <rmsd_refine>
1.756607

> <E_conf>
-144.056

> <E_score1>
-10.28052

> <E_refine>
-33.59142

> <E_score2>
-6.13851

>  <$File>
outputs/pdb_4j58_cleaned.pdb_2024_06_17__22_47_40_V2_BS398_MIN1_/SDF/sdf_db.sdf

> <Rec_index>
1

>  <PLIF_raw>
[[23,26,27,26,26,27],[1212,823,823,823,829,823],[81,54,54,54,54,54],[2,2,2,7,7,7],[5.2,1,1.5,4.367257617,1.094188618,3.875247008]]

> <FP:PLIF>
6 19 1 16 17 18

>  <PLIF_ligidx>
[[26,27],27,[26,26,27],[26,27],23,23]

$$$$
147
  MOE2022           3D

 53 55  0  0  1  0  0  0  0  0999 V2000
    7.5020   20.6000   18.9410 C   0  0  0  0  0  0  0  0  0  0  0  0
    8.5340   21.4360   18.5350 C   0  0  0  0  0  0  0  0  0  0  0  0
    6.3260   20.4910   18.1840 C   0  0  0  0  0  0  0  0  0  0  0  0
    5.2930   19.5690   18.6310 C   0  0  0  0  0  0  0  0  0  0  0  0
    4.2260   19.1500   17.9000 C   0  0  0  0  0  0  0  0  0  0  0  0
    8.4080   22.1820   17.3700 C   0  0  0  0  0  0  0  0  0  0  0  0
    3.2990   18.1310   18.3880 C   0  0  0  0  0  0  0  0  0  0  0  0
    2.2730   17.6450   17.5630 N   0  0  0  0  0  0  0  0  0  0  0  0
    3.4430   17.6520   19.5100 O   0  0  0  0  0  0  0  0  0  0  0  0
    6.2090   21.2600   17.0150 C   0  0  0  0  0  0  0  0  0  0  0  0
    7.2440   22.0960   16.6130 C   0  0  0  0  0  0  0  0  0  0  0  0
    2.2820   17.9710   16.1100 C   0  0  0  0  0  0  0  0  0  0  0  0
    1.1620   16.7120   17.9830 C   0  0  2  0  0  0  0  0  0  0  0  0
   -0.1580   17.1270   17.3010 C   0  0  0  0  0  0  0  0  0  0  0  0
    0.9280   16.4830   19.4890 C   0  0  0  0  0  0  0  0  0  0  0  0
    1.3510   17.1040   15.2390 C   0  0  2  0  0  0  0  0  0  0  0  0
    1.3830   17.5310   13.8360 N   0  0  0  0  0  0  0  0  0  0  0  0
   -0.0910   17.1260   15.7650 C   0  0  0  0  0  0  0  0  0  0  0  0
    2.2840   16.9650   12.9140 C   0  0  0  0  0  0  0  0  0  0  0  0
    2.8630   17.8180   11.9690 C   0  0  0  0  0  0  0  0  0  0  0  0
    3.7480   17.2920   11.0360 C   0  0  0  0  0  0  0  0  0  0  0  0
    2.5750   15.5910   12.9020 C   0  0  0  0  0  0  0  0  0  0  0  0
    4.3200   18.1290   10.1150 O   0  0  0  0  0  0  0  0  0  0  0  0
    4.0660   15.9310   11.0340 C   0  0  0  0  0  0  0  0  0  0  0  0
    3.4630   15.0760   11.9610 C   0  0  0  0  0  0  0  0  0  0  0  0
    5.0070   15.4750   10.1130 O   0  0  0  0  0  0  0  0  0  0  0  0
    5.5010   14.1170   10.0600 C   0  0  0  0  0  0  0  0  0  0  0  0
    7.6120   20.0310   19.8280 H   0  0  0  0  0  0  0  0  0  0  0  0
    9.4210   21.5010   19.1120 H   0  0  0  0  0  0  0  0  0  0  0  0
    5.4340   19.1780   19.6030 H   0  0  0  0  0  0  0  0  0  0  0  0
    4.0620   19.5410   16.9340 H   0  0  0  0  0  0  0  0  0  0  0  0
    9.1970   22.8150   17.0600 H   0  0  0  0  0  0  0  0  0  0  0  0
    5.3300   21.2130   16.4280 H   0  0  0  0  0  0  0  0  0  0  0  0
    7.1470   22.6720   15.7290 H   0  0  0  0  0  0  0  0  0  0  0  0
    2.0100   19.0100   15.9810 H   0  0  0  0  0  0  0  0  0  0  0  0
    3.2850   17.8710   15.7190 H   0  0  0  0  0  0  0  0  0  0  0  0
    1.4150   15.7430   17.5870 H   0  0  0  0  0  0  0  0  0  0  0  0
   -0.9640   16.4610   17.6120 H   0  0  0  0  0  0  0  0  0  0  0  0
   -0.4050   18.1360   17.6360 H   0  0  0  0  0  0  0  0  0  0  0  0
    1.7510   15.9230   19.9320 H   0  0  0  0  0  0  0  0  0  0  0  0
    0.8150   17.4290   20.0130 H   0  0  0  0  0  0  0  0  0  0  0  0
    0.0260   15.8930   19.6540 H   0  0  0  0  0  0  0  0  0  0  0  0
    1.7200   16.0830   15.3170 H   0  0  0  0  0  0  0  0  0  0  0  0
    1.3070   18.5550   13.7480 H   0  0  0  0  0  0  0  0  0  0  0  0
   -0.6100   16.2480   15.3790 H   0  0  0  0  0  0  0  0  0  0  0  0
   -0.6050   18.0150   15.3960 H   0  0  0  0  0  0  0  0  0  0  0  0
    2.6300   18.8510   11.9640 H   0  0  0  0  0  0  0  0  0  0  0  0
    2.1120   14.9370   13.5940 H   0  0  0  0  0  0  0  0  0  0  0  0
    4.8660   17.6090    9.4910 H   0  0  0  0  0  0  0  0  0  0  0  0
    3.6760   14.0400   11.9590 H   0  0  0  0  0  0  0  0  0  0  0  0
    5.9160   13.8250   11.0240 H   0  0  0  0  0  0  0  0  0  0  0  0
    4.6940   13.4320    9.8000 H   0  0  0  0  0  0  0  0  0  0  0  0
    6.2840   14.0370    9.3060 H   0  0  0  0  0  0  0  0  0  0  0  0
  1  2  1  0  0  0  0
  1  3  2  0  0  0  0
  1 28  1  0  0  0  0
  2  6  2  0  0  0  0
  2 29  1  0  0  0  0
  3  4  1  0  0  0  0
  3 10  1  0  0  0  0
  4  5  2  0  0  0  0
  4 30  1  0  0  0  0
  5  7  1  0  0  0  0
  5 31  1  0  0  0  0
  6 11  1  0  0  0  0
  6 32  1  0  0  0  0
  7  8  1  0  0  0  0
  7  9  2  0  0  0  0
  8 12  1  0  0  0  0
  8 13  1  0  0  0  0
 10 11  2  0  0  0  0
 10 33  1  0  0  0  0
 11 34  1  0  0  0  0
 12 16  1  0  0  0  0
 12 35  1  0  0  0  0
 12 36  1  0  0  0  0
 13 14  1  0  0  0  0
 13 15  1  0  0  0  0
 13 37  1  0  0  0  0
 14 18  1  0  0  0  0
 14 38  1  0  0  0  0
 14 39  1  0  0  0  0
 15 40  1  0  0  0  0
 15 41  1  0  0  0  0
 15 42  1  0  0  0  0
 16 17  1  0  0  0  0
 16 18  1  0  0  0  0
 16 43  1  0  0  0  0
 17 19  1  0  0  0  0
 17 44  1  0  0  0  0
 18 45  1  0  0  0  0
 18 46  1  0  0  0  0
 19 20  1  0  0  0  0
 19 22  2  0  0  0  0
 20 21  2  0  0  0  0
 20 47  1  0  0  0  0
 21 23  1  0  0  0  0
 21 24  1  0  0  0  0
 22 25  1  0  0  0  0
 22 48  1  0  0  0  0
 23 49  1  0  0  0  0
 24 25  2  0  0  0  0
 24 26  1  0  0  0  0
 25 50  1  0  0  0  0
 26 27  1  0  0  0  0
 27 51  1  0  0  0  0
 27 52  1  0  0  0  0
 27 53  1  0  0  0  0
M  END
> <rseq>
1

> <mseq>
148

> <S>
-6.16524

> <rmsd_refine>
1.031918

> <E_conf>
-28.13088

> <E_score1>
-8.785051

> <E_refine>
-33.43317

> <E_score2>
-6.16524

>  <$File>
outputs/pdb_4j58_cleaned.pdb_2024_06_17__22_47_40_V2_BS398_MIN1_/SDF/sdf_db.sdf

> <Rec_index>
1

>  <PLIF_raw>
[[1,3,10,11,6,2],[826,826,826,826,826,826],[54,54,54,54,54,54],[10,10,10,10,10,10],[0.5,0.5,0.5,0.5,0.5,0.5]]

> <FP:PLIF>
2

>  <PLIF_ligidx>
[[1,3,10,11,6,2]]

$$$$
148
  MOE2022           3D

 49 50  0  0  0  0  0  0  0  0999 V2000
    8.6350   21.0700   18.4410 C   0  0  0  0  0  0  0  0  0  0  0  0
    8.4090   22.2740   17.7860 C   0  0  0  0  0  0  0  0  0  0  0  0
    7.5670   20.2350   18.7500 C   0  0  0  0  0  0  0  0  0  0  0  0
    6.2640   20.6020   18.4120 C   0  0  0  0  0  0  0  0  0  0  0  0
    6.0420   21.8290   17.7840 C   0  0  0  0  0  0  0  0  0  0  0  0
    5.1070   19.6720   18.7320 C   0  0  0  0  0  0  0  0  0  0  0  0
    4.2290   19.2590   17.5500 C   0  0  0  0  0  0  0  0  0  0  0  0
    3.0070   18.5420   17.6920 N   0  0  0  0  0  0  0  0  0  0  0  0
    7.1120   22.6590   17.4660 C   0  0  0  0  0  0  0  0  0  0  0  0
    2.6750   17.7090   18.8130 C   0  0  0  0  0  0  0  0  0  0  0  0
    2.0690   18.6800   16.5440 C   0  0  0  0  0  0  0  0  0  0  0  0
    1.3610   17.0800   18.9460 C   0  0  0  0  0  0  0  0  0  0  0  0
    4.5640   19.5840   16.4240 O   0  0  0  0  0  0  0  0  0  0  0  0
    0.9700   16.2880   19.9800 C   0  0  0  0  0  0  0  0  0  0  0  0
    3.5440   17.5270   19.6540 O   0  0  0  0  0  0  0  0  0  0  0  0
    1.7640   15.9760   21.0300 O   0  0  0  0  0  0  0  0  0  0  0  0
    2.3370   17.7380   15.3830 C   0  0  0  0  0  0  0  0  0  0  0  0
    2.8360   18.2480   14.1850 C   0  0  0  0  0  0  0  0  0  0  0  0
    2.0880   16.3710   15.4870 C   0  0  0  0  0  0  0  0  0  0  0  0
    3.0880   17.4070   13.1090 C   0  0  0  0  0  0  0  0  0  0  0  0
    2.8540   16.0280   13.2090 C   0  0  0  0  0  0  0  0  0  0  0  0
    2.3390   15.5260   14.4110 C   0  0  0  0  0  0  0  0  0  0  0  0
    3.1480   15.1180   12.0990 C   0  0  0  0  0  0  0  0  0  0  0  0
    4.0240   15.5390   11.1250 N   0  0  0  0  0  0  0  0  0  0  0  0
    2.6650   13.9920   12.0120 O   0  0  0  0  0  0  0  0  0  0  0  0
    4.5060   14.6970   10.0360 C   0  0  0  0  0  0  0  0  0  0  0  0
    5.9010   15.1020    9.5620 C   0  0  0  0  0  0  0  0  0  0  0  0
    9.6210   20.7860   18.7020 H   0  0  0  0  0  0  0  0  0  0  0  0
    9.2250   22.8960   17.5300 H   0  0  0  0  0  0  0  0  0  0  0  0
    7.7530   19.3160   19.2410 H   0  0  0  0  0  0  0  0  0  0  0  0
    5.0560   22.1270   17.5350 H   0  0  0  0  0  0  0  0  0  0  0  0
    5.5180   18.7930   19.1940 H   0  0  0  0  0  0  0  0  0  0  0  0
    4.5020   20.1300   19.4960 H   0  0  0  0  0  0  0  0  0  0  0  0
    6.9390   23.5830   16.9770 H   0  0  0  0  0  0  0  0  0  0  0  0
    1.0340   18.6220   16.8380 H   0  0  0  0  0  0  0  0  0  0  0  0
    2.1180   19.6980   16.1780 H   0  0  0  0  0  0  0  0  0  0  0  0
    0.6570   17.2480   18.1810 H   0  0  0  0  0  0  0  0  0  0  0  0
    0.0070   15.8500   20.0450 H   0  0  0  0  0  0  0  0  0  0  0  0
    2.6480   16.3880   20.9240 H   0  0  0  0  0  0  0  0  0  0  0  0
    3.0260   19.2860   14.0900 H   0  0  0  0  0  0  0  0  0  0  0  0
    1.7030   15.9670   16.3860 H   0  0  0  0  0  0  0  0  0  0  0  0
    3.4600   17.8250   12.2100 H   0  0  0  0  0  0  0  0  0  0  0  0
    2.1410   14.4900   14.5050 H   0  0  0  0  0  0  0  0  0  0  0  0
    4.3560   16.5130   11.1520 H   0  0  0  0  0  0  0  0  0  0  0  0
    4.5440   13.6550   10.3600 H   0  0  0  0  0  0  0  0  0  0  0  0
    3.8140   14.7680    9.1950 H   0  0  0  0  0  0  0  0  0  0  0  0
    6.6100   15.0150   10.3850 H   0  0  0  0  0  0  0  0  0  0  0  0
    6.2120   14.4430    8.7520 H   0  0  0  0  0  0  0  0  0  0  0  0
    5.8860   16.1310    9.2000 H   0  0  0  0  0  0  0  0  0  0  0  0
  1  2  1  0  0  0  0
  1  3  2  0  0  0  0
  1 28  1  0  0  0  0
  2  9  2  0  0  0  0
  2 29  1  0  0  0  0
  3  4  1  0  0  0  0
  3 30  1  0  0  0  0
  4  5  2  0  0  0  0
  4  6  1  0  0  0  0
  5  9  1  0  0  0  0
  5 31  1  0  0  0  0
  6  7  1  0  0  0  0
  6 32  1  0  0  0  0
  6 33  1  0  0  0  0
  7  8  1  0  0  0  0
  7 13  2  0  0  0  0
  8 10  1  0  0  0  0
  8 11  1  0  0  0  0
  9 34  1  0  0  0  0
 10 12  1  0  0  0  0
 10 15  2  0  0  0  0
 11 17  1  0  0  0  0
 11 35  1  0  0  0  0
 11 36  1  0  0  0  0
 12 14  2  0  0  0  0
 12 37  1  0  0  0  0
 14 16  1  0  0  0  0
 14 38  1  0  0  0  0
 16 39  1  0  0  0  0
 17 18  2  0  0  0  0
 17 19  1  0  0  0  0
 18 20  1  0  0  0  0
 18 40  1  0  0  0  0
 19 22  2  0  0  0  0
 19 41  1  0  0  0  0
 20 21  2  0  0  0  0
 20 42  1  0  0  0  0
 21 22  1  0  0  0  0
 21 23  1  0  0  0  0
 22 43  1  0  0  0  0
 23 24  1  0  0  0  0
 23 25  2  0  0  0  0
 24 26  1  0  0  0  0
 24 44  1  0  0  0  0
 26 27  1  0  0  0  0
 26 45  1  0  0  0  0
 26 46  1  0  0  0  0
 27 47  1  0  0  0  0
 27 48  1  0  0  0  0
 27 49  1  0  0  0  0
M  END
> <rseq>
1

> <mseq>
149

> <S>
-6.808155

> <rmsd_refine>
0.8214533

> <E_conf>
-57.93451

> <E_score1>
-9.884378

> <E_refine>
-36.54093

> <E_score2>
-6.808155

>  <$File>
outputs/pdb_4j58_cleaned.pdb_2024_06_17__22_47_40_V2_BS398_MIN1_/SDF/sdf_db.sdf

> <Rec_index>
1

>  <PLIF_raw>
[[],[],[],[],[]]

>  <PLIF_ligidx>
[]

$$$$
149
  MOE2022           3D

 54 56  0  0  1  0  0  0  0  0999 V2000
    7.5220   20.4390   18.8180 C   0  0  0  0  0  0  0  0  0  0  0  0
    8.5850   21.2940   18.5560 C   0  0  0  0  0  0  0  0  0  0  0  0
    6.3400   20.5130   18.0670 C   0  0  0  0  0  0  0  0  0  0  0  0
    5.2780   19.5560   18.3360 C   0  0  0  0  0  0  0  0  0  0  0  0
    4.2110   19.3110   17.5300 C   0  0  0  0  0  0  0  0  0  0  0  0
    8.4830   22.2410   17.5440 C   0  0  0  0  0  0  0  0  0  0  0  0
    3.2500   18.2520   17.8090 C   0  0  0  0  0  0  0  0  0  0  0  0
    2.3280   17.8300   16.8450 N   0  0  0  0  0  0  0  0  0  0  0  0
    3.2540   17.6700   18.8950 O   0  0  0  0  0  0  0  0  0  0  0  0
    6.2450   21.4900   17.0620 C   0  0  0  0  0  0  0  0  0  0  0  0
    7.3110   22.3430   16.8030 C   0  0  0  0  0  0  0  0  0  0  0  0
    2.4180   18.1870   15.4100 C   0  0  0  0  0  0  0  0  0  0  0  0
    1.2960   16.8080   17.1850 C   0  0  2  0  0  0  0  0  0  0  0  0
    0.5280   16.2820   15.9520 C   0  0  0  0  0  0  0  0  0  0  0  0
    0.2920   17.3280   18.2190 C   0  0  0  0  0  0  0  0  0  0  0  0
    2.5110   16.9570   14.4850 C   0  0  2  0  0  0  0  0  0  0  0  0
    2.4690   17.3780   13.0840 N   0  0  0  0  0  0  0  0  0  0  0  0
    1.4460   15.8860   14.7950 C   0  0  0  0  0  0  0  0  0  0  0  0
    3.1700   16.6470   12.1060 C   0  0  0  0  0  0  0  0  0  0  0  0
    3.6600   17.4110   10.9810 C   0  0  0  0  0  0  0  0  0  0  0  0
    4.4190   16.8330   10.0220 C   0  0  0  0  0  0  0  0  0  0  0  0
    4.7560   15.4480   10.0740 N   0  0  0  0  0  0  0  0  0  0  0  0
    5.6060   14.8850    9.1290 C   0  0  0  0  0  0  0  0  0  0  0  0
    4.1520   14.5800   11.1180 C   0  0  0  0  0  0  0  0  0  0  0  0
    6.1020   15.5950    8.2740 O   0  0  0  0  0  0  0  0  0  0  0  0
    5.9150   13.4010    9.1840 C   0  0  0  0  0  0  0  0  0  0  0  0
    3.3830   15.3140   12.1920 C   0  0  0  0  0  0  0  0  0  0  0  0
    7.6140   19.7150   19.5860 H   0  0  0  0  0  0  0  0  0  0  0  0
    9.4780   21.2210   19.1220 H   0  0  0  0  0  0  0  0  0  0  0  0
    5.3980   18.9820   19.2180 H   0  0  0  0  0  0  0  0  0  0  0  0
    4.0680   19.8820   16.6560 H   0  0  0  0  0  0  0  0  0  0  0  0
    9.2980   22.8840   17.3390 H   0  0  0  0  0  0  0  0  0  0  0  0
    5.3610   21.5880   16.4910 H   0  0  0  0  0  0  0  0  0  0  0  0
    7.2320   23.0740   16.0400 H   0  0  0  0  0  0  0  0  0  0  0  0
    1.5480   18.7710   15.1400 H   0  0  0  0  0  0  0  0  0  0  0  0
    3.2610   18.8190   15.1850 H   0  0  0  0  0  0  0  0  0  0  0  0
    1.8110   15.9630   17.6220 H   0  0  0  0  0  0  0  0  0  0  0  0
   -0.0710   15.4180   16.2420 H   0  0  0  0  0  0  0  0  0  0  0  0
   -0.1520   17.0600   15.6010 H   0  0  0  0  0  0  0  0  0  0  0  0
   -0.2180   18.2100   17.8310 H   0  0  0  0  0  0  0  0  0  0  0  0
   -0.4540   16.5650   18.4410 H   0  0  0  0  0  0  0  0  0  0  0  0
    0.7780   17.5950   19.1560 H   0  0  0  0  0  0  0  0  0  0  0  0
    3.4940   16.5210   14.6720 H   0  0  0  0  0  0  0  0  0  0  0  0
    2.5700   18.3980   12.9690 H   0  0  0  0  0  0  0  0  0  0  0  0
    1.9600   14.9630   15.0560 H   0  0  0  0  0  0  0  0  0  0  0  0
    0.8320   15.6920   13.9140 H   0  0  0  0  0  0  0  0  0  0  0  0
    3.4190   18.4410   10.9270 H   0  0  0  0  0  0  0  0  0  0  0  0
    4.8040   17.3660    9.1900 H   0  0  0  0  0  0  0  0  0  0  0  0
    3.4840   13.8670   10.6550 H   0  0  0  0  0  0  0  0  0  0  0  0
    4.9230   13.9940   11.6000 H   0  0  0  0  0  0  0  0  0  0  0  0
    5.0160   12.8030    9.2230 H   0  0  0  0  0  0  0  0  0  0  0  0
    6.4660   13.0780    8.3150 H   0  0  0  0  0  0  0  0  0  0  0  0
    6.5070   13.1560   10.0560 H   0  0  0  0  0  0  0  0  0  0  0  0
    3.0230   14.7260   12.9930 H   0  0  0  0  0  0  0  0  0  0  0  0
  1  2  1  0  0  0  0
  1  3  2  0  0  0  0
  1 28  1  0  0  0  0
  2  6  2  0  0  0  0
  2 29  1  0  0  0  0
  3  4  1  0  0  0  0
  3 10  1  0  0  0  0
  4  5  2  0  0  0  0
  4 30  1  0  0  0  0
  5  7  1  0  0  0  0
  5 31  1  0  0  0  0
  6 11  1  0  0  0  0
  6 32  1  0  0  0  0
  7  8  1  0  0  0  0
  7  9  2  0  0  0  0
  8 12  1  0  0  0  0
  8 13  1  0  0  0  0
 10 11  2  0  0  0  0
 10 33  1  0  0  0  0
 11 34  1  0  0  0  0
 12 16  1  0  0  0  0
 12 35  1  0  0  0  0
 12 36  1  0  0  0  0
 13 14  1  0  0  0  0
 13 15  1  0  0  0  0
 13 37  1  0  0  0  0
 14 18  1  0  0  0  0
 14 38  1  0  0  0  0
 14 39  1  0  0  0  0
 15 40  1  0  0  0  0
 15 41  1  0  0  0  0
 15 42  1  0  0  0  0
 16 17  1  0  0  0  0
 16 18  1  0  0  0  0
 16 43  1  0  0  0  0
 17 19  1  0  0  0  0
 17 44  1  0  0  0  0
 18 45  1  0  0  0  0
 18 46  1  0  0  0  0
 19 20  1  0  0  0  0
 19 27  2  0  0  0  0
 20 21  2  0  0  0  0
 20 47  1  0  0  0  0
 21 22  1  0  0  0  0
 21 48  1  0  0  0  0
 22 23  1  0  0  0  0
 22 24  1  0  0  0  0
 23 25  2  0  0  0  0
 23 26  1  0  0  0  0
 24 27  1  0  0  0  0
 24 49  1  0  0  0  0
 24 50  1  0  0  0  0
 26 51  1  0  0  0  0
 26 52  1  0  0  0  0
 26 53  1  0  0  0  0
 27 54  1  0  0  0  0
M  END
> <rseq>
1

> <mseq>
150

> <S>
-6.479409

> <rmsd_refine>
1.662785

> <E_conf>
-77.52574

> <E_score1>
-8.786225

> <E_refine>
-33.7835

> <E_score2>
-6.479409

>  <$File>
outputs/pdb_4j58_cleaned.pdb_2024_06_17__22_47_40_V2_BS398_MIN1_/SDF/sdf_db.sdf

> <Rec_index>
1

>  <PLIF_raw>
[[2,2,2,2,2,2],[1650,1653,1657,1659,1655,1651],[112,112,112,112,112,112],[10,10,10,10,10,10],[0.6,0.6,0.6,0.6,0.6,0.6]]

> <FP:PLIF>
15

>  <PLIF_ligidx>
[[2,2,2,2,2,2]]

$$$$
150
  MOE2022           3D

 50 53  0  0  1  0  0  0  0  0999 V2000
    8.6270   20.9100   18.4980 C   0  0  0  0  0  0  0  0  0  0  0  0
    8.6250   22.1250   17.8220 C   0  0  0  0  0  0  0  0  0  0  0  0
    7.4250   20.2880   18.8170 C   0  0  0  0  0  0  0  0  0  0  0  0
    6.2140   20.8850   18.4710 C   0  0  0  0  0  0  0  0  0  0  0  0
    6.2200   22.1050   17.7940 C   0  0  0  0  0  0  0  0  0  0  0  0
    7.4220   22.7230   17.4680 C   0  0  0  0  0  0  0  0  0  0  0  0
    4.8990   20.2400   18.8560 C   0  0  0  0  0  0  0  0  0  0  0  0
    4.1200   19.5550   17.7450 C   0  0  0  0  0  0  0  0  0  0  0  0
    4.0900   20.1120   16.5300 N   0  0  0  0  0  0  0  0  0  0  0  0
    3.3480   19.5700   15.5650 C   0  0  0  0  0  0  0  0  0  0  0  0
    2.5770   18.4290   15.7770 C   0  0  0  0  0  0  0  0  0  0  0  0
    3.3960   18.3950   18.0160 C   0  0  0  0  0  0  0  0  0  0  0  0
    1.6930   17.8980   14.6640 C   0  0  1  0  0  0  0  0  0  0  0  0
    2.3120   16.8200   13.9040 N   0  0  0  0  0  0  0  0  0  0  0  0
    2.6200   17.8170   17.0230 C   0  0  0  0  0  0  0  0  0  0  0  0
    0.3950   17.4860   15.1740 O   0  0  0  0  0  0  0  0  0  0  0  0
   -0.4840   18.5340   15.6460 C   0  0  0  0  0  0  0  0  0  0  0  0
    2.3900   15.5130   14.2870 C   0  0  0  0  0  0  0  0  0  0  0  0
    2.8980   16.9150   12.6780 C   0  0  0  0  0  0  0  0  0  0  0  0
    3.1000   18.0070   11.8240 C   0  0  0  0  0  0  0  0  0  0  0  0
    2.9710   14.7730   13.4000 N   0  0  0  0  0  0  0  0  0  0  0  0
    3.3000   15.6310   12.3670 C   0  0  0  0  0  0  0  0  0  0  0  0
    3.7360   17.7740   10.6150 C   0  0  0  0  0  0  0  0  0  0  0  0
    3.9510   15.3940   11.1420 C   0  0  0  0  0  0  0  0  0  0  0  0
    3.9590   18.9170    9.6490 C   0  0  0  0  0  0  0  0  0  0  0  0
    4.4250   14.0030   10.7800 C   0  0  0  0  0  0  0  0  0  0  0  0
    4.1630   16.4660   10.2820 C   0  0  0  0  0  0  0  0  0  0  0  0
    9.5450   20.4590   18.7730 H   0  0  0  0  0  0  0  0  0  0  0  0
    9.5380   22.5990   17.5790 H   0  0  0  0  0  0  0  0  0  0  0  0
    7.4360   19.3620   19.3310 H   0  0  0  0  0  0  0  0  0  0  0  0
    5.3040   22.5670   17.5260 H   0  0  0  0  0  0  0  0  0  0  0  0
    7.4200   23.6480   16.9520 H   0  0  0  0  0  0  0  0  0  0  0  0
    5.0630   19.5450   19.6670 H   0  0  0  0  0  0  0  0  0  0  0  0
    4.2710   21.0100   19.2780 H   0  0  0  0  0  0  0  0  0  0  0  0
    3.3480   20.0470   14.6190 H   0  0  0  0  0  0  0  0  0  0  0  0
    3.4220   17.9610   18.9820 H   0  0  0  0  0  0  0  0  0  0  0  0
    1.4930   18.7140   13.9810 H   0  0  0  0  0  0  0  0  0  0  0  0
    2.0590   16.9390   17.2220 H   0  0  0  0  0  0  0  0  0  0  0  0
   -1.4320   18.0990   15.9620 H   0  0  0  0  0  0  0  0  0  0  0  0
   -0.0370   19.0500   16.4960 H   0  0  0  0  0  0  0  0  0  0  0  0
   -0.6750   19.2520   14.8480 H   0  0  0  0  0  0  0  0  0  0  0  0
    1.9930   15.2040   15.2200 H   0  0  0  0  0  0  0  0  0  0  0  0
    2.7730   18.9770   12.0940 H   0  0  0  0  0  0  0  0  0  0  0  0
    4.5050   19.7260   10.1340 H   0  0  0  0  0  0  0  0  0  0  0  0
    4.5280   18.5940    8.7770 H   0  0  0  0  0  0  0  0  0  0  0  0
    3.0020   19.3070    9.3020 H   0  0  0  0  0  0  0  0  0  0  0  0
    3.6510   13.2670   11.0010 H   0  0  0  0  0  0  0  0  0  0  0  0
    4.6670   13.9310    9.7190 H   0  0  0  0  0  0  0  0  0  0  0  0
    5.3160   13.7460   11.3530 H   0  0  0  0  0  0  0  0  0  0  0  0
    4.6520   16.3040    9.3560 H   0  0  0  0  0  0  0  0  0  0  0  0
  1  2  2  0  0  0  0
  1  3  1  0  0  0  0
  1 28  1  0  0  0  0
  2  6  1  0  0  0  0
  2 29  1  0  0  0  0
  3  4  2  0  0  0  0
  3 30  1  0  0  0  0
  4  5  1  0  0  0  0
  4  7  1  0  0  0  0
  5  6  2  0  0  0  0
  5 31  1  0  0  0  0
  6 32  1  0  0  0  0
  7  8  1  0  0  0  0
  7 33  1  0  0  0  0
  7 34  1  0  0  0  0
  8  9  2  0  0  0  0
  8 12  1  0  0  0  0
  9 10  1  0  0  0  0
 10 11  2  0  0  0  0
 10 35  1  0  0  0  0
 11 13  1  0  0  0  0
 11 15  1  0  0  0  0
 12 15  2  0  0  0  0
 12 36  1  0  0  0  0
 13 14  1  0  0  0  0
 13 16  1  0  0  0  0
 13 37  1  0  0  0  0
 14 18  1  0  0  0  0
 14 19  1  0  0  0  0
 15 38  1  0  0  0  0
 16 17  1  0  0  0  0
 17 39  1  0  0  0  0
 17 40  1  0  0  0  0
 17 41  1  0  0  0  0
 18 21  2  0  0  0  0
 18 42  1  0  0  0  0
 19 20  2  0  0  0  0
 19 22  1  0  0  0  0
 20 23  1  0  0  0  0
 20 43  1  0  0  0  0
 21 22  1  0  0  0  0
 22 24  2  0  0  0  0
 23 25  1  0  0  0  0
 23 27  2  0  0  0  0
 24 26  1  0  0  0  0
 24 27  1  0  0  0  0
 25 44  1  0  0  0  0
 25 45  1  0  0  0  0
 25 46  1  0  0  0  0
 26 47  1  0  0  0  0
 26 48  1  0  0  0  0
 26 49  1  0  0  0  0
 27 50  1  0  0  0  0
M  END
> <rseq>
1

> <mseq>
151

> <S>
-5.876332

> <rmsd_refine>
0.9090528

> <E_conf>
42.9905

> <E_score1>
-8.365811

> <E_refine>
-28.24475

> <E_score2>
-5.876332

>  <$File>
outputs/pdb_4j58_cleaned.pdb_2024_06_17__22_47_40_V2_BS398_MIN1_/SDF/sdf_db.sdf

> <Rec_index>
1

>  <PLIF_raw>
[[],[],[],[],[]]

>  <PLIF_ligidx>
[]

$$$$
151
  MOE2022           3D

 46 49  0  0  1  0  0  0  0  0999 V2000
    8.6450   20.9210   18.4770 C   0  0  0  0  0  0  0  0  0  0  0  0
    8.6170   22.1270   17.7860 C   0  0  0  0  0  0  0  0  0  0  0  0
    7.4570   20.2700   18.7930 C   0  0  0  0  0  0  0  0  0  0  0  0
    6.2330   20.8300   18.4290 C   0  0  0  0  0  0  0  0  0  0  0  0
    6.2120   22.0430   17.7390 C   0  0  0  0  0  0  0  0  0  0  0  0
    7.4010   22.6880   17.4160 C   0  0  0  0  0  0  0  0  0  0  0  0
    4.9330   20.1550   18.8150 C   0  0  0  0  0  0  0  0  0  0  0  0
    4.1380   19.4880   17.7030 C   0  0  0  0  0  0  0  0  0  0  0  0
    4.1550   20.0140   16.4750 N   0  0  0  0  0  0  0  0  0  0  0  0
    3.3970   19.4900   15.5120 C   0  0  0  0  0  0  0  0  0  0  0  0
    2.5610   18.4000   15.7400 C   0  0  0  0  0  0  0  0  0  0  0  0
    3.3480   18.3760   17.9910 C   0  0  0  0  0  0  0  0  0  0  0  0
    1.6530   17.8940   14.6340 C   0  0  1  0  0  0  0  0  0  0  0  0
    2.1420   16.6730   13.9970 N   0  0  0  0  0  0  0  0  0  0  0  0
    2.5540   17.8180   17.0010 C   0  0  0  0  0  0  0  0  0  0  0  0
    0.2960   17.7050   15.1250 O   0  0  0  0  0  0  0  0  0  0  0  0
   -0.4380   18.8990   15.4860 C   0  0  0  0  0  0  0  0  0  0  0  0
    1.9570   15.4130   14.4910 C   0  0  0  0  0  0  0  0  0  0  0  0
    2.8160   16.5430   12.8130 C   0  0  0  0  0  0  0  0  0  0  0  0
    3.2790   17.4640   11.8590 C   0  0  0  0  0  0  0  0  0  0  0  0
    2.4480   14.4990   13.7210 N   0  0  0  0  0  0  0  0  0  0  0  0
    3.1180   18.8170   12.0280 O   0  0  0  0  0  0  0  0  0  0  0  0
    2.9920   15.1800   12.6530 C   0  0  0  0  0  0  0  0  0  0  0  0
    3.9170   16.9710   10.7280 C   0  0  0  0  0  0  0  0  0  0  0  0
    3.6450   14.6910   11.5060 C   0  0  0  0  0  0  0  0  0  0  0  0
    4.3840   17.8340    9.7670 O   0  0  0  0  0  0  0  0  0  0  0  0
    4.1050   15.5830   10.5480 C   0  0  0  0  0  0  0  0  0  0  0  0
    9.5720   20.4980   18.7650 H   0  0  0  0  0  0  0  0  0  0  0  0
    9.5190   22.6220   17.5440 H   0  0  0  0  0  0  0  0  0  0  0  0
    7.4880   19.3510   19.3190 H   0  0  0  0  0  0  0  0  0  0  0  0
    5.2870   22.4780   17.4600 H   0  0  0  0  0  0  0  0  0  0  0  0
    7.3790   23.6080   16.8900 H   0  0  0  0  0  0  0  0  0  0  0  0
    5.1170   19.4400   19.6040 H   0  0  0  0  0  0  0  0  0  0  0  0
    4.3030   20.9050   19.2700 H   0  0  0  0  0  0  0  0  0  0  0  0
    3.4340   19.9450   14.5550 H   0  0  0  0  0  0  0  0  0  0  0  0
    3.3380   17.9640   18.9670 H   0  0  0  0  0  0  0  0  0  0  0  0
    1.5790   18.6650   13.8810 H   0  0  0  0  0  0  0  0  0  0  0  0
    1.9400   16.9790   17.2130 H   0  0  0  0  0  0  0  0  0  0  0  0
   -1.4480   18.6270   15.7920 H   0  0  0  0  0  0  0  0  0  0  0  0
    0.0520   19.4100   16.3150 H   0  0  0  0  0  0  0  0  0  0  0  0
   -0.4990   19.5740   14.6320 H   0  0  0  0  0  0  0  0  0  0  0  0
    1.4490   15.2690   15.4110 H   0  0  0  0  0  0  0  0  0  0  0  0
    3.4350   19.2790   11.2270 H   0  0  0  0  0  0  0  0  0  0  0  0
    3.7800   13.6470   11.3810 H   0  0  0  0  0  0  0  0  0  0  0  0
    4.7690   17.3400    9.0170 H   0  0  0  0  0  0  0  0  0  0  0  0
    4.5950   15.2230    9.6800 H   0  0  0  0  0  0  0  0  0  0  0  0
  1  2  2  0  0  0  0
  1  3  1  0  0  0  0
  1 28  1  0  0  0  0
  2  6  1  0  0  0  0
  2 29  1  0  0  0  0
  3  4  2  0  0  0  0
  3 30  1  0  0  0  0
  4  5  1  0  0  0  0
  4  7  1  0  0  0  0
  5  6  2  0  0  0  0
  5 31  1  0  0  0  0
  6 32  1  0  0  0  0
  7  8  1  0  0  0  0
  7 33  1  0  0  0  0
  7 34  1  0  0  0  0
  8  9  2  0  0  0  0
  8 12  1  0  0  0  0
  9 10  1  0  0  0  0
 10 11  2  0  0  0  0
 10 35  1  0  0  0  0
 11 13  1  0  0  0  0
 11 15  1  0  0  0  0
 12 15  2  0  0  0  0
 12 36  1  0  0  0  0
 13 14  1  0  0  0  0
 13 16  1  0  0  0  0
 13 37  1  0  0  0  0
 14 18  1  0  0  0  0
 14 19  1  0  0  0  0
 15 38  1  0  0  0  0
 16 17  1  0  0  0  0
 17 39  1  0  0  0  0
 17 40  1  0  0  0  0
 17 41  1  0  0  0  0
 18 21  2  0  0  0  0
 18 42  1  0  0  0  0
 19 20  2  0  0  0  0
 19 23  1  0  0  0  0
 20 22  1  0  0  0  0
 20 24  1  0  0  0  0
 21 23  1  0  0  0  0
 22 43  1  0  0  0  0
 23 25  2  0  0  0  0
 24 26  1  0  0  0  0
 24 27  2  0  0  0  0
 25 27  1  0  0  0  0
 25 44  1  0  0  0  0
 26 45  1  0  0  0  0
 27 46  1  0  0  0  0
M  END
> <rseq>
1

> <mseq>
152

> <S>
-5.751567

> <rmsd_refine>
0.9199106

> <E_conf>
26.09117

> <E_score1>
-8.318445

> <E_refine>
-27.56676

> <E_score2>
-5.751567

>  <$File>
outputs/pdb_4j58_cleaned.pdb_2024_06_17__22_47_40_V2_BS398_MIN1_/SDF/sdf_db.sdf

> <Rec_index>
1

>  <PLIF_raw>
[[],[],[],[],[]]

>  <PLIF_ligidx>
[]

$$$$
152
  MOE2022           3D

 41 42  0  0  0  0  0  0  0  0999 V2000
    2.1270   15.4650   21.4980 O   0  0  0  0  0  0  0  0  0  0  0  0
    1.1030   15.9230   20.9120 C   0  0  0  0  0  0  0  0  0  0  0  0
    0.0030   16.0170   21.5250 O   0  5  0  0  0  0  0  0  0  0  0  0
    1.1810   16.3240   19.4980 C   0  0  0  0  0  0  0  0  0  0  0  0
    0.1980   16.6570   18.8350 O   0  0  0  0  0  0  0  0  0  0  0  0
    2.4120   16.3110   18.8820 N   0  0  0  0  0  0  0  0  0  0  0  0
    2.6370   16.6500   17.4760 C   0  0  0  0  0  0  0  0  0  0  0  0
    3.3220   17.9900   17.2130 C   0  0  0  0  0  0  0  0  0  0  0  0
    3.4400   18.4710   15.9000 C   0  0  0  0  0  0  0  0  0  0  0  0
    4.0360   19.7240   15.6660 C   0  0  0  0  0  0  0  0  0  0  0  0
    3.8620   18.7480   18.2560 C   0  0  0  0  0  0  0  0  0  0  0  0
    4.1330   20.2510   14.4040 O   0  0  0  0  0  0  0  0  0  0  0  0
    4.5680   20.4630   16.7140 C   0  0  0  0  0  0  0  0  0  0  0  0
    4.5050   19.9770   18.0270 C   0  0  0  0  0  0  0  0  0  0  0  0
    5.0990   20.7300   19.1370 C   0  0  0  0  0  0  0  0  0  0  0  0
    3.0170   17.6130   14.8380 N   0  0  0  0  0  0  0  0  0  0  0  0
    2.1950   17.9230   13.7800 C   0  0  0  0  0  0  0  0  0  0  0  0
    5.3110   21.9690   19.0190 O   0  0  0  0  0  0  0  0  0  0  0  0
    1.8530   16.7820   12.8450 C   0  0  0  0  0  0  0  0  0  0  0  0
    5.4110   20.1350   20.2060 O   0  5  0  0  0  0  0  0  0  0  0  0
    2.9540   16.4440   11.8560 C   0  0  0  0  0  0  0  0  0  0  0  0
    3.4090   17.4110   10.9590 C   0  0  0  0  0  0  0  0  0  0  0  0
    3.5100   15.1650   11.8200 C   0  0  0  0  0  0  0  0  0  0  0  0
    4.5120   14.8590   10.9020 C   0  0  0  0  0  0  0  0  0  0  0  0
    1.7770   19.0520   13.6120 O   0  0  0  0  0  0  0  0  0  0  0  0
    4.4060   17.1030   10.0390 C   0  0  0  0  0  0  0  0  0  0  0  0
    4.9610   15.8280   10.0120 C   0  0  0  0  0  0  0  0  0  0  0  0
    3.2270   16.0200   19.4460 H   0  0  0  0  0  0  0  0  0  0  0  0
    3.2290   15.8630   17.0310 H   0  0  0  0  0  0  0  0  0  0  0  0
    1.6990   16.6230   16.9370 H   0  0  0  0  0  0  0  0  0  0  0  0
    3.7980   18.3930   19.2520 H   0  0  0  0  0  0  0  0  0  0  0  0
    3.5090   19.7790   13.8150 H   0  0  0  0  0  0  0  0  0  0  0  0
    5.0280   21.3980   16.5170 H   0  0  0  0  0  0  0  0  0  0  0  0
    3.2710   16.6170   14.9280 H   0  0  0  0  0  0  0  0  0  0  0  0
    1.6020   15.9070   13.4300 H   0  0  0  0  0  0  0  0  0  0  0  0
    0.9530   17.0270   12.2970 H   0  0  0  0  0  0  0  0  0  0  0  0
    2.9900   18.3840   10.9700 H   0  0  0  0  0  0  0  0  0  0  0  0
    3.1730   14.4170   12.4910 H   0  0  0  0  0  0  0  0  0  0  0  0
    4.9310   13.8850   10.8830 H   0  0  0  0  0  0  0  0  0  0  0  0
    4.7390   17.8400    9.3550 H   0  0  0  0  0  0  0  0  0  0  0  0
    5.7220   15.5950    9.3110 H   0  0  0  0  0  0  0  0  0  0  0  0
  1  2  2  0  0  0  0
  2  3  1  0  0  0  0
  2  4  1  0  0  0  0
  4  5  2  0  0  0  0
  4  6  1  0  0  0  0
  6  7  1  0  0  0  0
  6 28  1  0  0  0  0
  7  8  1  0  0  0  0
  7 29  1  0  0  0  0
  7 30  1  0  0  0  0
  8  9  2  0  0  0  0
  8 11  1  0  0  0  0
  9 10  1  0  0  0  0
  9 16  1  0  0  0  0
 10 12  1  0  0  0  0
 10 13  2  0  0  0  0
 11 14  2  0  0  0  0
 11 31  1  0  0  0  0
 12 32  1  0  0  0  0
 13 14  1  0  0  0  0
 13 33  1  0  0  0  0
 14 15  1  0  0  0  0
 15 18  2  0  0  0  0
 15 20  1  0  0  0  0
 16 17  1  0  0  0  0
 16 34  1  0  0  0  0
 17 19  1  0  0  0  0
 17 25  2  0  0  0  0
 19 21  1  0  0  0  0
 19 35  1  0  0  0  0
 19 36  1  0  0  0  0
 21 22  1  0  0  0  0
 21 23  2  0  0  0  0
 22 26  2  0  0  0  0
 22 37  1  0  0  0  0
 23 24  1  0  0  0  0
 23 38  1  0  0  0  0
 24 27  2  0  0  0  0
 24 39  1  0  0  0  0
 26 27  1  0  0  0  0
 26 40  1  0  0  0  0
 27 41  1  0  0  0  0
M  CHG  1   3  -1
M  CHG  1  20  -1
M  END
> <rseq>
1

> <mseq>
153

> <S>
-5.90208

> <rmsd_refine>
1.313941

> <E_conf>
-52.64998

> <E_score1>
-9.876892

> <E_refine>
-40.78831

> <E_score2>
-5.90208

>  <$File>
outputs/pdb_4j58_cleaned.pdb_2024_06_17__22_47_40_V2_BS398_MIN1_/SDF/sdf_db.sdf

> <Rec_index>
1

>  <PLIF_raw>
[[6,3,20,1,1,3,3,18,20],[1617,1206,1499,1206,1212,1206,1212,1872,1866],[110,81,101,81,81,81,81,125,125],[1,2,4,7,7,7,7,7,7],[0.9,7.2,2.6,1.396065095,1.501356938,5.237338632,2.085532311,1.557557725,0.6091506537]]

> <FP:PLIF>
17 18 24 25 11 12 26 13

>  <PLIF_ligidx>
[3,3,[1,1,3,3],3,20,20,6,[18,20]]

$$$$
153
  MOE2022           3D

 57 58  0  0  1  0  0  0  0  0999 V2000
    8.1720   21.7950   16.0710 C   0  0  0  0  0  0  0  0  0  0  0  0
    7.8510   21.0940   17.2290 C   0  0  0  0  0  0  0  0  0  0  0  0
    7.1610   22.3140   15.2700 C   0  0  0  0  0  0  0  0  0  0  0  0
    5.8280   22.1420   15.6340 C   0  0  0  0  0  0  0  0  0  0  0  0
    6.5190   20.9220   17.5910 C   0  0  0  0  0  0  0  0  0  0  0  0
    5.4990   21.4510   16.7990 C   0  0  0  0  0  0  0  0  0  0  0  0
    4.0480   21.2810   17.2030 C   0  0  0  0  0  0  0  0  0  0  0  0
    3.4530   20.0220   16.7320 N   0  0  0  0  0  0  0  0  0  0  0  0
    3.5150   18.9030   17.4850 C   0  0  0  0  0  0  0  0  0  0  0  0
    2.8890   20.0200   15.3840 C   0  0  0  0  0  0  0  0  0  0  0  0
    2.8290   17.5920   17.0150 C   0  0  2  0  0  0  0  0  0  0  0  0
    4.1200   18.8800   18.5560 O   0  0  0  0  0  0  0  0  0  0  0  0
    2.3440   17.5690   15.5450 C   0  0  1  0  0  0  0  0  0  0  0  0
    1.7300   17.1900   17.9280 N   0  3  0  0  0  0  0  0  0  0  0  0
    3.0200   18.6570   14.7080 C   0  0  0  0  0  0  0  0  0  0  0  0
    2.6110   16.1990   14.9150 C   0  0  0  0  0  0  0  0  0  0  0  0
    1.8170   15.8150   13.9090 N   0  0  0  0  0  0  0  0  0  0  0  0
    3.5710   15.5340   15.2920 O   0  0  0  0  0  0  0  0  0  0  0  0
    2.2660   16.5640   19.1520 C   0  0  0  0  0  0  0  0  0  0  0  0
    1.1580   16.2530   20.1550 C   0  0  0  0  0  0  0  0  0  0  0  0
    1.7620   15.7400   21.4640 C   0  0  0  0  0  0  0  0  0  0  0  0
    2.0590   14.6220   13.0950 C   0  0  0  0  0  0  0  0  0  0  0  0
    3.0700   14.8570   11.9640 C   0  0  0  0  0  0  0  0  0  0  0  0
    3.5810   15.9620   11.7620 O   0  0  0  0  0  0  0  0  0  0  0  0
    3.3440   13.8100   11.1640 O   0  0  0  0  0  0  0  0  0  0  0  0
    4.2270   13.8790   10.0120 C   0  0  0  0  0  0  0  0  0  0  0  0
    5.7090   13.8810   10.3900 C   0  0  0  0  0  0  0  0  0  0  0  0
    9.1870   21.9370   15.8030 H   0  0  0  0  0  0  0  0  0  0  0  0
    8.6220   20.6940   17.8370 H   0  0  0  0  0  0  0  0  0  0  0  0
    7.4040   22.8460   14.3870 H   0  0  0  0  0  0  0  0  0  0  0  0
    5.0630   22.5470   15.0230 H   0  0  0  0  0  0  0  0  0  0  0  0
    6.2850   20.3900   18.4770 H   0  0  0  0  0  0  0  0  0  0  0  0
    3.9610   21.3570   18.2800 H   0  0  0  0  0  0  0  0  0  0  0  0
    3.4690   22.1160   16.8320 H   0  0  0  0  0  0  0  0  0  0  0  0
    1.8480   20.3140   15.4260 H   0  0  0  0  0  0  0  0  0  0  0  0
    3.3800   20.7640   14.7710 H   0  0  0  0  0  0  0  0  0  0  0  0
    3.5990   16.8280   17.0940 H   0  0  0  0  0  0  0  0  0  0  0  0
    1.2700   17.7650   15.5270 H   0  0  0  0  0  0  0  0  0  0  0  0
    1.1940   18.0100   18.1770 H   0  0  0  0  0  0  0  0  0  0  0  0
    1.1310   16.5220   17.4640 H   0  0  0  0  0  0  0  0  0  0  0  0
    2.5640   18.6990   13.7180 H   0  0  0  0  0  0  0  0  0  0  0  0
    4.0780   18.4210   14.5910 H   0  0  0  0  0  0  0  0  0  0  0  0
    1.0610   16.4190   13.6210 H   0  0  0  0  0  0  0  0  0  0  0  0
    2.7890   15.6440   18.8900 H   0  0  0  0  0  0  0  0  0  0  0  0
    2.9700   17.2440   19.6320 H   0  0  0  0  0  0  0  0  0  0  0  0
    0.6040   17.1680   20.3620 H   0  0  0  0  0  0  0  0  0  0  0  0
    0.4760   15.5080   19.7430 H   0  0  0  0  0  0  0  0  0  0  0  0
    2.0550   14.6970   21.3600 H   0  0  0  0  0  0  0  0  0  0  0  0
    2.6400   16.3280   21.7280 H   0  0  0  0  0  0  0  0  0  0  0  0
    1.0300   15.8330   22.2630 H   0  0  0  0  0  0  0  0  0  0  0  0
    2.4220   13.8100   13.7260 H   0  0  0  0  0  0  0  0  0  0  0  0
    1.1170   14.2990   12.6520 H   0  0  0  0  0  0  0  0  0  0  0  0
    4.0300   13.0080    9.3860 H   0  0  0  0  0  0  0  0  0  0  0  0
    3.9970   14.7750    9.4350 H   0  0  0  0  0  0  0  0  0  0  0  0
    6.3150   13.8560    9.4850 H   0  0  0  0  0  0  0  0  0  0  0  0
    5.9440   14.7850   10.9490 H   0  0  0  0  0  0  0  0  0  0  0  0
    5.9340   13.0050   10.9990 H   0  0  0  0  0  0  0  0  0  0  0  0
  1  2  1  0  0  0  0
  1  3  2  0  0  0  0
  1 28  1  0  0  0  0
  2  5  2  0  0  0  0
  2 29  1  0  0  0  0
  3  4  1  0  0  0  0
  3 30  1  0  0  0  0
  4  6  2  0  0  0  0
  4 31  1  0  0  0  0
  5  6  1  0  0  0  0
  5 32  1  0  0  0  0
  6  7  1  0  0  0  0
  7  8  1  0  0  0  0
  7 33  1  0  0  0  0
  7 34  1  0  0  0  0
  8  9  1  0  0  0  0
  8 10  1  0  0  0  0
  9 11  1  0  0  0  0
  9 12  2  0  0  0  0
 10 15  1  0  0  0  0
 10 35  1  0  0  0  0
 10 36  1  0  0  0  0
 11 13  1  0  0  0  0
 11 14  1  0  0  0  0
 11 37  1  0  0  0  0
 13 15  1  0  0  0  0
 13 16  1  0  0  0  0
 13 38  1  0  0  0  0
 14 19  1  0  0  0  0
 14 39  1  0  0  0  0
 14 40  1  0  0  0  0
 15 41  1  0  0  0  0
 15 42  1  0  0  0  0
 16 17  1  0  0  0  0
 16 18  2  0  0  0  0
 17 22  1  0  0  0  0
 17 43  1  0  0  0  0
 19 20  1  0  0  0  0
 19 44  1  0  0  0  0
 19 45  1  0  0  0  0
 20 21  1  0  0  0  0
 20 46  1  0  0  0  0
 20 47  1  0  0  0  0
 21 48  1  0  0  0  0
 21 49  1  0  0  0  0
 21 50  1  0  0  0  0
 22 23  1  0  0  0  0
 22 51  1  0  0  0  0
 22 52  1  0  0  0  0
 23 24  2  0  0  0  0
 23 25  1  0  0  0  0
 25 26  1  0  0  0  0
 26 27  1  0  0  0  0
 26 53  1  0  0  0  0
 26 54  1  0  0  0  0
 27 55  1  0  0  0  0
 27 56  1  0  0  0  0
 27 57  1  0  0  0  0
M  CHG  1  14   1
M  END
> <rseq>
1

> <mseq>
154

> <S>
-6.77232

> <rmsd_refine>
1.34237

> <E_conf>
-17.48351

> <E_score1>
-9.552194

> <E_refine>
-32.92743

> <E_score2>
-6.77232

>  <$File>
outputs/pdb_4j58_cleaned.pdb_2024_06_17__22_47_40_V2_BS398_MIN1_/SDF/sdf_db.sdf

> <Rec_index>
1

>  <PLIF_raw>
[[19,18],[1617,1067],[110,71],[1,4],[0.8,0.6]]

> <FP:PLIF>
34 26

>  <PLIF_ligidx>
[18,19]

$$$$
154
  MOE2022           3D

 55 57  0  0  1  0  0  0  0  0999 V2000
    6.1310   20.9420   18.2280 C   0  0  0  0  0  0  0  0  0  0  0  0
    5.4480   21.9340   17.5320 C   0  0  0  0  0  0  0  0  0  0  0  0
    5.4850   19.7580   18.5650 C   0  0  0  0  0  0  0  0  0  0  0  0
    4.1160   21.7410   17.1760 C   0  0  0  0  0  0  0  0  0  0  0  0
    4.1480   19.5440   18.2010 C   0  0  0  0  0  0  0  0  0  0  0  0
    3.4680   20.5570   17.5110 C   0  0  0  0  0  0  0  0  0  0  0  0
    3.4720   18.2970   18.5740 C   0  0  0  0  0  0  0  0  0  0  0  0
    2.5830   17.6840   17.6970 N   0  0  0  0  0  0  0  0  0  0  0  0
    2.9830   17.5950   16.2710 C   0  0  0  0  0  0  0  0  0  0  0  0
    3.6830   17.7620   19.6580 O   0  0  0  0  0  0  0  0  0  0  0  0
    1.6570   16.6120   18.1850 C   0  0  1  0  0  0  0  0  0  0  0  0
    1.0250   16.9660   19.4520 N   0  0  0  0  0  0  0  0  0  0  0  0
    0.5560   16.2560   17.1590 C   0  0  0  0  0  0  0  0  0  0  0  0
    1.0090   16.1080   15.7350 N   0  3  1  0  0  0  0  0  0  0  0  0
   -0.1200   15.7700   14.8000 C   0  0  0  0  0  0  0  0  0  0  0  0
    0.2360   15.5520   13.3190 C   0  0  0  0  0  0  0  0  0  0  0  0
    1.2740   14.4500   13.0540 C   0  0  0  0  0  0  0  0  0  0  0  0
    0.5290   16.0150   20.3010 C   0  0  0  0  0  0  0  0  0  0  0  0
    1.2240   13.7690   11.8940 N   0  0  0  0  0  0  0  0  0  0  0  0
    0.2820   13.9660   10.8020 C   0  0  0  0  0  0  0  0  0  0  0  0
    2.1180   12.6640   11.5810 C   0  0  0  0  0  0  0  0  0  0  0  0
    0.4010   14.8350   19.9750 O   0  0  0  0  0  0  0  0  0  0  0  0
    0.1780   16.4790   21.5320 N   0  0  0  0  0  0  0  0  0  0  0  0
    1.4920   11.9520   10.3850 C   0  0  0  0  0  0  0  0  0  0  0  0
    0.7910   13.0960    9.6530 C   0  0  0  0  0  0  0  0  0  0  0  0
    1.8180   17.2960   15.3220 C   0  0  0  0  0  0  0  0  0  0  0  0
    2.1390   14.2190   13.8970 O   0  0  0  0  0  0  0  0  0  0  0  0
    7.1430   21.0900   18.5040 H   0  0  0  0  0  0  0  0  0  0  0  0
    5.9400   22.8370   17.2760 H   0  0  0  0  0  0  0  0  0  0  0  0
    6.0130   19.0150   19.1030 H   0  0  0  0  0  0  0  0  0  0  0  0
    3.5940   22.5000   16.6530 H   0  0  0  0  0  0  0  0  0  0  0  0
    2.4500   20.4280   17.2480 H   0  0  0  0  0  0  0  0  0  0  0  0
    3.4750   18.4950   15.9340 H   0  0  0  0  0  0  0  0  0  0  0  0
    3.7200   16.8110   16.1630 H   0  0  0  0  0  0  0  0  0  0  0  0
    2.2520   15.7220   18.3440 H   0  0  0  0  0  0  0  0  0  0  0  0
    1.2470   17.8980   19.8310 H   0  0  0  0  0  0  0  0  0  0  0  0
    0.0550   15.3620   17.5090 H   0  0  0  0  0  0  0  0  0  0  0  0
   -0.2030   17.0240   17.2330 H   0  0  0  0  0  0  0  0  0  0  0  0
    1.6350   15.3090   15.7150 H   0  0  0  0  0  0  0  0  0  0  0  0
   -0.6330   14.8800   15.1410 H   0  0  0  0  0  0  0  0  0  0  0  0
   -0.8850   16.5340   14.8390 H   0  0  0  0  0  0  0  0  0  0  0  0
   -0.6980   15.3020   12.8180 H   0  0  0  0  0  0  0  0  0  0  0  0
    0.5980   16.4840   12.8850 H   0  0  0  0  0  0  0  0  0  0  0  0
   -0.7070   13.6210   11.1090 H   0  0  0  0  0  0  0  0  0  0  0  0
    0.2400   15.0120   10.4930 H   0  0  0  0  0  0  0  0  0  0  0  0
    3.1000   13.0560   11.3110 H   0  0  0  0  0  0  0  0  0  0  0  0
    2.2040   11.9780   12.4230 H   0  0  0  0  0  0  0  0  0  0  0  0
   -0.1110   16.7460   22.4860 H   0  0  0  0  0  0  0  0  0  0  0  0
    0.4100   17.4680   21.3600 H   0  0  0  0  0  0  0  0  0  0  0  0
    2.2440   11.4680    9.7620 H   0  0  0  0  0  0  0  0  0  0  0  0
    0.7530   11.2290   10.7330 H   0  0  0  0  0  0  0  0  0  0  0  0
   -0.0240   12.7390    9.0240 H   0  0  0  0  0  0  0  0  0  0  0  0
    1.5180   13.6560    9.0630 H   0  0  0  0  0  0  0  0  0  0  0  0
    1.2010   18.1820   15.2630 H   0  0  0  0  0  0  0  0  0  0  0  0
    2.2170   17.1790   14.3230 H   0  0  0  0  0  0  0  0  0  0  0  0
  1  2  2  0  0  0  0
  1  3  1  0  0  0  0
  1 28  1  0  0  0  0
  2  4  1  0  0  0  0
  2 29  1  0  0  0  0
  3  5  2  0  0  0  0
  3 30  1  0  0  0  0
  4  6  2  0  0  0  0
  4 31  1  0  0  0  0
  5  6  1  0  0  0  0
  5  7  1  0  0  0  0
  6 32  1  0  0  0  0
  7  8  1  0  0  0  0
  7 10  2  0  0  0  0
  8  9  1  0  0  0  0
  8 11  1  0  0  0  0
  9 26  1  0  0  0  0
  9 33  1  0  0  0  0
  9 34  1  0  0  0  0
 11 12  1  0  0  0  0
 11 13  1  0  0  0  0
 11 35  1  0  0  0  0
 12 18  1  0  0  0  0
 12 36  1  0  0  0  0
 13 14  1  0  0  0  0
 13 37  1  0  0  0  0
 13 38  1  0  0  0  0
 14 15  1  0  0  0  0
 14 26  1  0  0  0  0
 14 39  1  0  0  0  0
 15 16  1  0  0  0  0
 15 40  1  0  0  0  0
 15 41  1  0  0  0  0
 16 17  1  0  0  0  0
 16 42  1  0  0  0  0
 16 43  1  0  0  0  0
 17 19  1  0  0  0  0
 17 27  2  0  0  0  0
 18 22  2  0  0  0  0
 18 23  1  0  0  0  0
 19 20  1  0  0  0  0
 19 21  1  0  0  0  0
 20 25  1  0  0  0  0
 20 44  1  0  0  0  0
 20 45  1  0  0  0  0
 21 24  1  0  0  0  0
 21 46  1  0  0  0  0
 21 47  1  0  0  0  0
 23 48  1  0  0  0  0
 23 49  1  0  0  0  0
 24 25  1  0  0  0  0
 24 50  1  0  0  0  0
 24 51  1  0  0  0  0
 25 52  1  0  0  0  0
 25 53  1  0  0  0  0
 26 54  1  0  0  0  0
 26 55  1  0  0  0  0
M  CHG  1  14   1
M  END
> <rseq>
1

> <mseq>
155

> <S>
-5.95812

> <rmsd_refine>
2.826087

> <E_conf>
-79.70362

> <E_score1>
-9.069001

> <E_refine>
-32.0078

> <E_score2>
-5.95812

>  <$File>
outputs/pdb_4j58_cleaned.pdb_2024_06_17__22_47_40_V2_BS398_MIN1_/SDF/sdf_db.sdf

> <Rec_index>
1

>  <PLIF_raw>
[[14,23,22],[1071,1563,1212],[71,106,81],[3,3,2],[0.6,0.6,6.5]]

> <FP:PLIF>
7 17 18 42

>  <PLIF_ligidx>
[14,22,22,23]

$$$$
155
  MOE2022           3D

 46 48  0  0  0  0  0  0  0  0999 V2000
    6.1400   20.7680   18.7220 C   0  0  0  0  0  0  0  0  0  0  0  0
    5.3280   19.6400   18.6780 C   0  0  0  0  0  0  0  0  0  0  0  0
    4.1140   19.6500   17.9770 C   0  0  0  0  0  0  0  0  0  0  0  0
    3.2420   18.4680   17.9350 C   0  0  0  0  0  0  0  0  0  0  0  0
    2.5810   18.1180   16.7510 C   0  0  0  0  0  0  0  0  0  0  0  0
    3.0200   17.6890   19.0780 C   0  0  0  0  0  0  0  0  0  0  0  0
    2.0920   16.6400   19.0840 C   0  0  0  0  0  0  0  0  0  0  0  0
    1.6780   17.0560   16.7230 C   0  0  0  0  0  0  0  0  0  0  0  0
    1.8170   15.8740   20.3100 C   0  0  0  0  0  0  0  0  0  0  0  0
    1.4180   16.3470   17.8920 C   0  0  0  0  0  0  0  0  0  0  0  0
    0.9390   16.6800   15.4510 C   0  0  0  0  0  0  0  0  0  0  0  0
    3.7350   20.8340   17.3290 C   0  0  0  0  0  0  0  0  0  0  0  0
    1.7210   16.8300   14.2210 N   0  0  0  0  0  0  0  0  0  0  0  0
    2.3330   15.7970   13.5460 C   0  0  0  0  0  0  0  0  0  0  0  0
    2.2320   14.6560   13.9930 O   0  0  0  0  0  0  0  0  0  0  0  0
    3.0820   16.1100   12.3220 C   0  0  0  0  0  0  0  0  0  0  0  0
    0.8320   15.0820   20.3610 O   0  0  0  0  0  0  0  0  0  0  0  0
    3.7780   15.1070   11.6340 C   0  0  0  0  0  0  0  0  0  0  0  0
    5.7510   21.9320   18.0690 C   0  0  0  0  0  0  0  0  0  0  0  0
    4.5470   21.9620   17.3730 C   0  0  0  0  0  0  0  0  0  0  0  0
    3.1010   17.3810   11.8650 N   0  0  0  0  0  0  0  0  0  0  0  0
    3.7750   17.6940   10.7620 C   0  0  0  0  0  0  0  0  0  0  0  0
    2.5640   16.0100   21.3150 O   0  5  0  0  0  0  0  0  0  0  0  0
    4.5110   15.4170   10.4970 C   0  0  0  0  0  0  0  0  0  0  0  0
    5.2930   14.3530    9.7580 C   0  0  0  0  0  0  0  0  0  0  0  0
    3.7280   19.1300   10.2930 C   0  0  0  0  0  0  0  0  0  0  0  0
    4.4930   16.7320   10.0540 C   0  0  0  0  0  0  0  0  0  0  0  0
    7.0560   20.7390   19.2530 H   0  0  0  0  0  0  0  0  0  0  0  0
    5.6370   18.7670   19.1790 H   0  0  0  0  0  0  0  0  0  0  0  0
    2.7630   18.6750   15.8700 H   0  0  0  0  0  0  0  0  0  0  0  0
    3.5450   17.9170   19.9680 H   0  0  0  0  0  0  0  0  0  0  0  0
    0.6980   15.5700   17.8790 H   0  0  0  0  0  0  0  0  0  0  0  0
    0.5700   15.6660   15.5330 H   0  0  0  0  0  0  0  0  0  0  0  0
    0.0490   17.2900   15.3740 H   0  0  0  0  0  0  0  0  0  0  0  0
    2.8150   20.8770   16.8050 H   0  0  0  0  0  0  0  0  0  0  0  0
    1.8400   17.7860   13.8510 H   0  0  0  0  0  0  0  0  0  0  0  0
    3.7550   14.1090   11.9880 H   0  0  0  0  0  0  0  0  0  0  0  0
    6.3700   22.7910   18.1010 H   0  0  0  0  0  0  0  0  0  0  0  0
    4.2460   22.8490   16.8780 H   0  0  0  0  0  0  0  0  0  0  0  0
    6.1660   14.7820    9.2650 H   0  0  0  0  0  0  0  0  0  0  0  0
    5.6430   13.5810   10.4460 H   0  0  0  0  0  0  0  0  0  0  0  0
    4.6680   13.8800    9.0010 H   0  0  0  0  0  0  0  0  0  0  0  0
    2.7800   19.3310    9.7950 H   0  0  0  0  0  0  0  0  0  0  0  0
    3.8220   19.8150   11.1370 H   0  0  0  0  0  0  0  0  0  0  0  0
    4.5330   19.3430    9.5890 H   0  0  0  0  0  0  0  0  0  0  0  0
    5.0240   17.0040    9.1770 H   0  0  0  0  0  0  0  0  0  0  0  0
  1  2  1  0  0  0  0
  1 19  2  0  0  0  0
  1 28  1  0  0  0  0
  2  3  2  0  0  0  0
  2 29  1  0  0  0  0
  3  4  1  0  0  0  0
  3 12  1  0  0  0  0
  4  5  1  0  0  0  0
  4  6  2  0  0  0  0
  5  8  2  0  0  0  0
  5 30  1  0  0  0  0
  6  7  1  0  0  0  0
  6 31  1  0  0  0  0
  7  9  1  0  0  0  0
  7 10  2  0  0  0  0
  8 10  1  0  0  0  0
  8 11  1  0  0  0  0
  9 17  2  0  0  0  0
  9 23  1  0  0  0  0
 10 32  1  0  0  0  0
 11 13  1  0  0  0  0
 11 33  1  0  0  0  0
 11 34  1  0  0  0  0
 12 20  2  0  0  0  0
 12 35  1  0  0  0  0
 13 14  1  0  0  0  0
 13 36  1  0  0  0  0
 14 15  2  0  0  0  0
 14 16  1  0  0  0  0
 16 18  1  0  0  0  0
 16 21  2  0  0  0  0
 18 24  2  0  0  0  0
 18 37  1  0  0  0  0
 19 20  1  0  0  0  0
 19 38  1  0  0  0  0
 20 39  1  0  0  0  0
 21 22  1  0  0  0  0
 22 26  1  0  0  0  0
 22 27  2  0  0  0  0
 24 25  1  0  0  0  0
 24 27  1  0  0  0  0
 25 40  1  0  0  0  0
 25 41  1  0  0  0  0
 25 42  1  0  0  0  0
 26 43  1  0  0  0  0
 26 44  1  0  0  0  0
 26 45  1  0  0  0  0
 27 46  1  0  0  0  0
M  CHG  1  23  -1
M  END
> <rseq>
1

> <mseq>
156

> <S>
-6.000025

> <rmsd_refine>
1.795916

> <E_conf>
-50.81362

> <E_score1>
-9.87815

> <E_refine>
-35.58337

> <E_score2>
-6.000025

>  <$File>
outputs/pdb_4j58_cleaned.pdb_2024_06_17__22_47_40_V2_BS398_MIN1_/SDF/sdf_db.sdf

> <Rec_index>
1

>  <PLIF_raw>
[[17,17,17,4,6,7,10,8,5],[1212,1206,1212,954,954,954,954,954,954],[81,81,81,62,62,62,62,62,62],[2,7,7,10,10,10,10,10,10],[7.6,1.447778895,4.274606333,0.6,0.6,0.6,0.6,0.6,0.6]]

> <FP:PLIF>
21 17 18 24 25

>  <PLIF_ligidx>
[[4,6,7,10,8,5],17,17,[17,17],17]

$$$$
156
  MOE2022           3D

 53 55  0  0  1  0  0  0  0  0999 V2000
    8.7620   21.1570   18.5360 C   0  0  0  0  0  0  0  0  0  0  0  0
    7.9840   20.0980   18.9920 C   0  0  0  0  0  0  0  0  0  0  0  0
    6.6580   19.9850   18.5970 C   0  0  0  0  0  0  0  0  0  0  0  0
    6.0920   20.9180   17.7200 C   0  0  0  0  0  0  0  0  0  0  0  0
    6.8880   21.9820   17.2650 C   0  0  0  0  0  0  0  0  0  0  0  0
    8.2130   22.0980   17.6720 C   0  0  0  0  0  0  0  0  0  0  0  0
    4.6990   20.7580   17.3010 C   0  0  0  0  0  0  0  0  0  0  0  0
    3.9180   19.9980   17.8680 O   0  0  0  0  0  0  0  0  0  0  0  0
    4.2450   21.4730   16.2210 N   0  0  0  0  0  0  0  0  0  0  0  0
    2.9210   21.2670   15.6290 C   0  0  0  0  0  0  0  0  0  0  0  0
    2.8020   19.9640   14.8420 C   0  0  0  0  0  0  0  0  0  0  0  0
    3.6260   19.7420   13.9520 O   0  0  0  0  0  0  0  0  0  0  0  0
    1.7940   19.0900   15.1040 N   0  0  0  0  0  0  0  0  0  0  0  0
    0.8460   19.2980   16.2160 C   0  0  0  0  0  0  0  0  0  0  0  0
    1.6100   17.8380   14.3230 C   0  0  2  0  0  0  0  0  0  0  0  0
    2.6910   16.7610   14.6100 C   0  0  1  0  0  0  0  0  0  0  0  0
    1.4700   18.1130   12.8110 C   0  0  0  0  0  0  0  0  0  0  0  0
    2.5650   16.1710   16.0220 C   0  0  0  0  0  0  0  0  0  0  0  0
    2.8940   17.0840   17.0920 O   0  0  0  0  0  0  0  0  0  0  0  0
    2.4860   16.7650   18.3720 C   0  0  0  0  0  0  0  0  0  0  0  0
    1.4320   15.9290   18.5770 O   0  0  0  0  0  0  0  0  0  0  0  0
    3.0180   17.1570   19.5520 C   0  0  0  0  0  0  0  0  0  0  0  0
    2.5730   15.5740   13.6290 C   0  0  0  0  0  0  0  0  0  0  0  0
    1.3240   15.7780   19.9260 C   0  0  0  0  0  0  0  0  0  0  0  0
    2.2810   16.5040   20.5470 C   0  0  0  0  0  0  0  0  0  0  0  0
    2.5150   16.0370   12.1700 C   0  0  0  0  0  0  0  0  0  0  0  0
    1.3530   16.9210   11.9460 N   0  3  0  0  0  0  0  0  0  0  0  0
    9.7710   21.2440   18.8450 H   0  0  0  0  0  0  0  0  0  0  0  0
    8.4000   19.3740   19.6390 H   0  0  0  0  0  0  0  0  0  0  0  0
    6.0770   19.1770   18.9580 H   0  0  0  0  0  0  0  0  0  0  0  0
    6.4880   22.7120   16.6100 H   0  0  0  0  0  0  0  0  0  0  0  0
    8.8070   22.9030   17.3240 H   0  0  0  0  0  0  0  0  0  0  0  0
    4.9140   22.0520   15.6940 H   0  0  0  0  0  0  0  0  0  0  0  0
    2.1740   21.3650   16.4030 H   0  0  0  0  0  0  0  0  0  0  0  0
    2.7170   22.0890   14.9570 H   0  0  0  0  0  0  0  0  0  0  0  0
    0.1940   18.4500   16.3710 H   0  0  0  0  0  0  0  0  0  0  0  0
    1.3630   19.4520   17.1540 H   0  0  0  0  0  0  0  0  0  0  0  0
    0.2130   20.1570   16.0400 H   0  0  0  0  0  0  0  0  0  0  0  0
    0.6630   17.4000   14.6090 H   0  0  0  0  0  0  0  0  0  0  0  0
    3.6740   17.2160   14.4950 H   0  0  0  0  0  0  0  0  0  0  0  0
    0.6010   18.7500   12.6390 H   0  0  0  0  0  0  0  0  0  0  0  0
    2.3420   18.6660   12.4660 H   0  0  0  0  0  0  0  0  0  0  0  0
    1.5420   15.8160   16.1510 H   0  0  0  0  0  0  0  0  0  0  0  0
    3.2440   15.3230   16.1100 H   0  0  0  0  0  0  0  0  0  0  0  0
    3.8350   17.8170   19.6780 H   0  0  0  0  0  0  0  0  0  0  0  0
    3.4300   14.9110   13.7540 H   0  0  0  0  0  0  0  0  0  0  0  0
    1.6680   15.0040   13.8480 H   0  0  0  0  0  0  0  0  0  0  0  0
    0.5700   15.1570   20.3330 H   0  0  0  0  0  0  0  0  0  0  0  0
    2.4360   16.5510   21.5910 H   0  0  0  0  0  0  0  0  0  0  0  0
    3.4340   16.5730   11.9280 H   0  0  0  0  0  0  0  0  0  0  0  0
    2.4350   15.1620   11.5230 H   0  0  0  0  0  0  0  0  0  0  0  0
    0.5050   16.4200   12.1760 H   0  0  0  0  0  0  0  0  0  0  0  0
    1.3170   17.2060   10.9770 H   0  0  0  0  0  0  0  0  0  0  0  0
  1  2  2  0  0  0  0
  1  6  1  0  0  0  0
  1 28  1  0  0  0  0
  2  3  1  0  0  0  0
  2 29  1  0  0  0  0
  3  4  2  0  0  0  0
  3 30  1  0  0  0  0
  4  5  1  0  0  0  0
  4  7  1  0  0  0  0
  5  6  2  0  0  0  0
  5 31  1  0  0  0  0
  6 32  1  0  0  0  0
  7  8  2  0  0  0  0
  7  9  1  0  0  0  0
  9 10  1  0  0  0  0
  9 33  1  0  0  0  0
 10 11  1  0  0  0  0
 10 34  1  0  0  0  0
 10 35  1  0  0  0  0
 11 12  2  0  0  0  0
 11 13  1  0  0  0  0
 13 14  1  0  0  0  0
 13 15  1  0  0  0  0
 14 36  1  0  0  0  0
 14 37  1  0  0  0  0
 14 38  1  0  0  0  0
 15 16  1  0  0  0  0
 15 17  1  0  0  0  0
 15 39  1  0  0  0  0
 16 18  1  0  0  0  0
 16 23  1  0  0  0  0
 16 40  1  0  0  0  0
 17 27  1  0  0  0  0
 17 41  1  0  0  0  0
 17 42  1  0  0  0  0
 18 19  1  0  0  0  0
 18 43  1  0  0  0  0
 18 44  1  0  0  0  0
 19 20  1  0  0  0  0
 20 21  1  0  0  0  0
 20 22  2  0  0  0  0
 21 24  1  0  0  0  0
 22 25  1  0  0  0  0
 22 45  1  0  0  0  0
 23 26  1  0  0  0  0
 23 46  1  0  0  0  0
 23 47  1  0  0  0  0
 24 25  2  0  0  0  0
 24 48  1  0  0  0  0
 25 49  1  0  0  0  0
 26 27  1  0  0  0  0
 26 50  1  0  0  0  0
 26 51  1  0  0  0  0
 27 52  1  0  0  0  0
 27 53  1  0  0  0  0
M  CHG  1  27   1
M  END
> <rseq>
1

> <mseq>
157

> <S>
-6.255024

> <rmsd_refine>
0.8914537

> <E_conf>
49.94439

> <E_score1>
-8.119155

> <E_refine>
-28.83019

> <E_score2>
-6.255024

>  <$File>
outputs/pdb_4j58_cleaned.pdb_2024_06_17__22_47_40_V2_BS398_MIN1_/SDF/sdf_db.sdf

> <Rec_index>
1

>  <PLIF_raw>
[[],[],[],[],[]]

>  <PLIF_ligidx>
[]

$$$$
157
  MOE2022           3D

 50 51  0  0  0  0  0  0  0  0999 V2000
    8.5710   21.0250   18.4300 C   0  0  0  0  0  0  0  0  0  0  0  0
    8.3660   22.2300   17.7690 C   0  0  0  0  0  0  0  0  0  0  0  0
    7.4930   20.1950   18.7150 C   0  0  0  0  0  0  0  0  0  0  0  0
    6.1990   20.5660   18.3460 C   0  0  0  0  0  0  0  0  0  0  0  0
    5.9980   21.7890   17.7060 C   0  0  0  0  0  0  0  0  0  0  0  0
    5.0280   19.6490   18.6580 C   0  0  0  0  0  0  0  0  0  0  0  0
    4.1610   19.2200   17.4720 C   0  0  0  0  0  0  0  0  0  0  0  0
    2.9610   18.4730   17.6250 N   0  0  0  0  0  0  0  0  0  0  0  0
    7.0790   22.6160   17.4130 C   0  0  0  0  0  0  0  0  0  0  0  0
    2.6260   17.7210   18.7910 C   0  0  0  0  0  0  0  0  0  0  0  0
    2.0220   18.5050   16.4640 C   0  0  0  0  0  0  0  0  0  0  0  0
    1.2400   17.3880   19.1060 C   0  0  0  0  0  0  0  0  0  0  0  0
    4.4720   19.5710   16.3480 O   0  0  0  0  0  0  0  0  0  0  0  0
    0.8420   16.4860   20.0420 C   0  0  0  0  0  0  0  0  0  0  0  0
    3.5420   17.3580   19.5150 O   0  0  0  0  0  0  0  0  0  0  0  0
    1.7010   15.7590   20.7930 O   0  0  0  0  0  0  0  0  0  0  0  0
    2.4470   17.7250   15.2330 C   0  0  0  0  0  0  0  0  0  0  0  0
    2.6810   18.4000   14.0360 C   0  0  0  0  0  0  0  0  0  0  0  0
    2.5570   16.3370   15.2640 C   0  0  0  0  0  0  0  0  0  0  0  0
    3.0060   17.7010   12.8810 C   0  0  0  0  0  0  0  0  0  0  0  0
    3.1080   16.3010   12.8950 C   0  0  0  0  0  0  0  0  0  0  0  0
    2.8800   15.6320   14.1090 C   0  0  0  0  0  0  0  0  0  0  0  0
    3.4410   15.5470   11.6850 C   0  0  0  0  0  0  0  0  0  0  0  0
    3.3070   14.3440   11.6610 O   0  0  0  0  0  0  0  0  0  0  0  0
    3.9210   16.2410   10.4140 C   0  0  0  0  0  0  0  0  0  0  0  0
    4.7130   15.3700    9.4170 C   0  0  0  0  0  0  0  0  0  0  0  0
    6.0620   14.8810    9.9550 C   0  0  0  0  0  0  0  0  0  0  0  0
    9.5500   20.7370   18.7150 H   0  0  0  0  0  0  0  0  0  0  0  0
    9.1900   22.8510   17.5360 H   0  0  0  0  0  0  0  0  0  0  0  0
    7.6630   19.2770   19.2160 H   0  0  0  0  0  0  0  0  0  0  0  0
    5.0200   22.0900   17.4310 H   0  0  0  0  0  0  0  0  0  0  0  0
    5.4170   18.7820   19.1590 H   0  0  0  0  0  0  0  0  0  0  0  0
    4.4130   20.1340   19.3960 H   0  0  0  0  0  0  0  0  0  0  0  0
    6.9210   23.5390   16.9170 H   0  0  0  0  0  0  0  0  0  0  0  0
    1.0320   18.1660   16.7120 H   0  0  0  0  0  0  0  0  0  0  0  0
    1.8590   19.5380   16.1880 H   0  0  0  0  0  0  0  0  0  0  0  0
    0.4920   17.9130   18.5790 H   0  0  0  0  0  0  0  0  0  0  0  0
   -0.1750   16.2780   20.2560 H   0  0  0  0  0  0  0  0  0  0  0  0
    2.6290   15.9720   20.5550 H   0  0  0  0  0  0  0  0  0  0  0  0
    2.6020   19.4560   14.0010 H   0  0  0  0  0  0  0  0  0  0  0  0
    2.3830   15.8130   16.1680 H   0  0  0  0  0  0  0  0  0  0  0  0
    3.1630   18.2450   11.9870 H   0  0  0  0  0  0  0  0  0  0  0  0
    2.9490   14.5760   14.1500 H   0  0  0  0  0  0  0  0  0  0  0  0
    3.0600   16.6550    9.9080 H   0  0  0  0  0  0  0  0  0  0  0  0
    4.5320   17.0960   10.6650 H   0  0  0  0  0  0  0  0  0  0  0  0
    4.1080   14.5080    9.1330 H   0  0  0  0  0  0  0  0  0  0  0  0
    4.8980   15.9610    8.5190 H   0  0  0  0  0  0  0  0  0  0  0  0
    6.6940   15.7330   10.2020 H   0  0  0  0  0  0  0  0  0  0  0  0
    5.9120   14.2670   10.8430 H   0  0  0  0  0  0  0  0  0  0  0  0
    6.5570   14.2790    9.1930 H   0  0  0  0  0  0  0  0  0  0  0  0
  1  2  1  0  0  0  0
  1  3  2  0  0  0  0
  1 28  1  0  0  0  0
  2  9  2  0  0  0  0
  2 29  1  0  0  0  0
  3  4  1  0  0  0  0
  3 30  1  0  0  0  0
  4  5  2  0  0  0  0
  4  6  1  0  0  0  0
  5  9  1  0  0  0  0
  5 31  1  0  0  0  0
  6  7  1  0  0  0  0
  6 32  1  0  0  0  0
  6 33  1  0  0  0  0
  7  8  1  0  0  0  0
  7 13  2  0  0  0  0
  8 10  1  0  0  0  0
  8 11  1  0  0  0  0
  9 34  1  0  0  0  0
 10 12  1  0  0  0  0
 10 15  2  0  0  0  0
 11 17  1  0  0  0  0
 11 35  1  0  0  0  0
 11 36  1  0  0  0  0
 12 14  2  0  0  0  0
 12 37  1  0  0  0  0
 14 16  1  0  0  0  0
 14 38  1  0  0  0  0
 16 39  1  0  0  0  0
 17 18  2  0  0  0  0
 17 19  1  0  0  0  0
 18 20  1  0  0  0  0
 18 40  1  0  0  0  0
 19 22  2  0  0  0  0
 19 41  1  0  0  0  0
 20 21  2  0  0  0  0
 20 42  1  0  0  0  0
 21 22  1  0  0  0  0
 21 23  1  0  0  0  0
 22 43  1  0  0  0  0
 23 24  2  0  0  0  0
 23 25  1  0  0  0  0
 25 26  1  0  0  0  0
 25 44  1  0  0  0  0
 25 45  1  0  0  0  0
 26 27  1  0  0  0  0
 26 46  1  0  0  0  0
 26 47  1  0  0  0  0
 27 48  1  0  0  0  0
 27 49  1  0  0  0  0
 27 50  1  0  0  0  0
M  END
> <rseq>
1

> <mseq>
158

> <S>
-6.865862

> <rmsd_refine>
0.8003927

> <E_conf>
-23.07733

> <E_score1>
-9.53177

> <E_refine>
-36.39351

> <E_score2>
-6.865862

>  <$File>
outputs/pdb_4j58_cleaned.pdb_2024_06_17__22_47_40_V2_BS398_MIN1_/SDF/sdf_db.sdf

> <Rec_index>
1

>  <PLIF_raw>
[[],[],[],[],[]]

>  <PLIF_ligidx>
[]

$$$$
158
  MOE2022           3D

 45 47  0  0  0  0  0  0  0  0999 V2000
    6.1760   20.7860   18.7910 C   0  0  0  0  0  0  0  0  0  0  0  0
    5.3700   19.6570   18.7100 C   0  0  0  0  0  0  0  0  0  0  0  0
    4.1540   19.6850   18.0150 C   0  0  0  0  0  0  0  0  0  0  0  0
    3.2840   18.5030   17.9380 C   0  0  0  0  0  0  0  0  0  0  0  0
    2.6420   18.1720   16.7390 C   0  0  0  0  0  0  0  0  0  0  0  0
    3.0450   17.7070   19.0660 C   0  0  0  0  0  0  0  0  0  0  0  0
    2.1160   16.6590   19.0420 C   0  0  0  0  0  0  0  0  0  0  0  0
    1.7400   17.1120   16.6800 C   0  0  0  0  0  0  0  0  0  0  0  0
    1.8190   15.8780   20.2540 C   0  0  0  0  0  0  0  0  0  0  0  0
    1.4620   16.3840   17.8340 C   0  0  0  0  0  0  0  0  0  0  0  0
    1.0190   16.7620   15.3910 C   0  0  0  0  0  0  0  0  0  0  0  0
    3.7680   20.8880   17.4060 C   0  0  0  0  0  0  0  0  0  0  0  0
    1.8470   16.8520   14.1840 N   0  0  0  0  0  0  0  0  0  0  0  0
    2.3530   15.7730   13.4930 C   0  0  0  0  0  0  0  0  0  0  0  0
    2.1380   14.6420   13.9260 O   0  0  0  0  0  0  0  0  0  0  0  0
    3.1300   16.0260   12.2730 C   0  0  0  0  0  0  0  0  0  0  0  0
    0.8470   15.0690   20.2720 O   0  0  0  0  0  0  0  0  0  0  0  0
    3.7760   14.9680   11.6150 C   0  0  0  0  0  0  0  0  0  0  0  0
    5.7800   21.9700   18.1790 C   0  0  0  0  0  0  0  0  0  0  0  0
    4.5750   22.0190   17.4870 C   0  0  0  0  0  0  0  0  0  0  0  0
    3.2250   17.2880   11.8000 N   0  0  0  0  0  0  0  0  0  0  0  0
    3.9410   17.5150   10.6980 C   0  0  0  0  0  0  0  0  0  0  0  0
    2.5340   16.0200   21.2820 O   0  5  0  0  0  0  0  0  0  0  0  0
    4.5500   15.2070   10.4830 C   0  0  0  0  0  0  0  0  0  0  0  0
    5.2780   14.0760    9.7910 C   0  0  0  0  0  0  0  0  0  0  0  0
    4.0020   18.8170   10.2520 N   0  0  0  0  0  0  0  0  0  0  0  0
    4.6250   16.5060   10.0120 C   0  0  0  0  0  0  0  0  0  0  0  0
    7.0950   20.7440   19.3180 H   0  0  0  0  0  0  0  0  0  0  0  0
    5.6850   18.7680   19.1800 H   0  0  0  0  0  0  0  0  0  0  0  0
    2.8370   18.7440   15.8690 H   0  0  0  0  0  0  0  0  0  0  0  0
    3.5560   17.9220   19.9670 H   0  0  0  0  0  0  0  0  0  0  0  0
    0.7420   15.6080   17.7980 H   0  0  0  0  0  0  0  0  0  0  0  0
    0.5890   15.7720   15.4740 H   0  0  0  0  0  0  0  0  0  0  0  0
    0.1690   17.4210   15.2790 H   0  0  0  0  0  0  0  0  0  0  0  0
    2.8470   20.9440   16.8860 H   0  0  0  0  0  0  0  0  0  0  0  0
    2.0590   17.7970   13.8280 H   0  0  0  0  0  0  0  0  0  0  0  0
    3.6850   13.9810   11.9860 H   0  0  0  0  0  0  0  0  0  0  0  0
    6.3950   22.8310   18.2390 H   0  0  0  0  0  0  0  0  0  0  0  0
    4.2680   22.9200   17.0230 H   0  0  0  0  0  0  0  0  0  0  0  0
    6.1100   14.4520    9.1930 H   0  0  0  0  0  0  0  0  0  0  0  0
    5.6800   13.3730   10.5220 H   0  0  0  0  0  0  0  0  0  0  0  0
    4.5980   13.5350    9.1320 H   0  0  0  0  0  0  0  0  0  0  0  0
    4.2680   18.9410    9.2630 H   0  0  0  0  0  0  0  0  0  0  0  0
    3.2420   19.4290   10.5840 H   0  0  0  0  0  0  0  0  0  0  0  0
    5.1900   16.7400    9.1460 H   0  0  0  0  0  0  0  0  0  0  0  0
  1  2  1  0  0  0  0
  1 19  2  0  0  0  0
  1 28  1  0  0  0  0
  2  3  2  0  0  0  0
  2 29  1  0  0  0  0
  3  4  1  0  0  0  0
  3 12  1  0  0  0  0
  4  5  1  0  0  0  0
  4  6  2  0  0  0  0
  5  8  2  0  0  0  0
  5 30  1  0  0  0  0
  6  7  1  0  0  0  0
  6 31  1  0  0  0  0
  7  9  1  0  0  0  0
  7 10  2  0  0  0  0
  8 10  1  0  0  0  0
  8 11  1  0  0  0  0
  9 17  2  0  0  0  0
  9 23  1  0  0  0  0
 10 32  1  0  0  0  0
 11 13  1  0  0  0  0
 11 33  1  0  0  0  0
 11 34  1  0  0  0  0
 12 20  2  0  0  0  0
 12 35  1  0  0  0  0
 13 14  1  0  0  0  0
 13 36  1  0  0  0  0
 14 15  2  0  0  0  0
 14 16  1  0  0  0  0
 16 18  1  0  0  0  0
 16 21  2  0  0  0  0
 18 24  2  0  0  0  0
 18 37  1  0  0  0  0
 19 20  1  0  0  0  0
 19 38  1  0  0  0  0
 20 39  1  0  0  0  0
 21 22  1  0  0  0  0
 22 26  1  0  0  0  0
 22 27  2  0  0  0  0
 24 25  1  0  0  0  0
 24 27  1  0  0  0  0
 25 40  1  0  0  0  0
 25 41  1  0  0  0  0
 25 42  1  0  0  0  0
 26 43  1  0  0  0  0
 26 44  1  0  0  0  0
 27 45  1  0  0  0  0
M  CHG  1  23  -1
M  END
> <rseq>
1

> <mseq>
159

> <S>
-5.936444

> <rmsd_refine>
1.697446

> <E_conf>
-105.1329

> <E_score1>
-10.03406

> <E_refine>
-35.29798

> <E_score2>
-5.936444

>  <$File>
outputs/pdb_4j58_cleaned.pdb_2024_06_17__22_47_40_V2_BS398_MIN1_/SDF/sdf_db.sdf

> <Rec_index>
1

>  <PLIF_raw>
[[17,17,17,4,6,7,10,8,5],[1212,1206,1212,954,954,954,954,954,954],[81,81,81,62,62,62,62,62,62],[2,7,7,10,10,10,10,10,10],[7.4,1.199608565,4.031631551,0.5,0.5,0.5,0.5,0.5,0.5]]

> <FP:PLIF>
21 17 18 24 25

>  <PLIF_ligidx>
[[4,6,7,10,8,5],17,17,[17,17],17]

$$$$
159
  MOE2022           3D

 51 53  0  0  1  0  0  0  0  0999 V2000
    8.6450   21.1110   18.3000 C   0  0  0  0  0  0  0  0  0  0  0  0
    8.4330   22.2380   17.5130 C   0  0  0  0  0  0  0  0  0  0  0  0
    7.5730   20.3080   18.6660 C   0  0  0  0  0  0  0  0  0  0  0  0
    7.1450   22.5720   17.1070 C   0  0  0  0  0  0  0  0  0  0  0  0
    6.2720   20.6280   18.2600 C   0  0  0  0  0  0  0  0  0  0  0  0
    6.0680   21.7780   17.4840 C   0  0  0  0  0  0  0  0  0  0  0  0
    5.1630   19.7940   18.7150 C   0  0  0  0  0  0  0  0  0  0  0  0
    4.2630   19.2010   17.8280 N   0  0  0  0  0  0  0  0  0  0  0  0
    4.2170   19.5050   16.3930 C   0  0  0  0  0  0  0  0  0  0  0  0
    5.0250   19.5830   19.9150 O   0  0  0  0  0  0  0  0  0  0  0  0
    3.0660   18.4860   18.3120 C   0  0  0  0  0  0  0  0  0  0  0  0
    3.7230   18.3260   15.5390 C   0  0  0  0  0  0  0  0  0  0  0  0
    2.4320   17.7710   16.0030 N   0  0  0  0  0  0  0  0  0  0  0  0
    1.9810   16.6330   15.1370 C   0  0  2  0  0  0  0  0  0  0  0  0
    2.5930   17.3430   17.4050 C   0  0  0  0  0  0  0  0  0  0  0  0
    1.9760   16.9960   13.6440 C   0  0  0  0  0  0  0  0  0  0  0  0
    0.5880   16.1060   15.5330 C   0  0  0  0  0  0  0  0  0  0  0  0
    1.1470   17.7730   13.1650 O   0  0  0  0  0  0  0  0  0  0  0  0
    0.1790   15.0560   14.6790 O   0  0  0  0  0  0  0  0  0  0  0  0
    2.9180   16.4310   12.8740 O   0  0  0  0  0  0  0  0  0  0  0  0
    2.9730   16.6560   11.4480 C   0  0  0  0  0  0  0  0  0  0  0  0
    4.0490   15.8240   10.7890 C   0  0  0  0  0  0  0  0  0  0  0  0
    4.8650   16.3800    9.8050 C   0  0  0  0  0  0  0  0  0  0  0  0
    5.8490   15.6090    9.1950 C   0  0  0  0  0  0  0  0  0  0  0  0
    4.2240   14.4890   11.1530 C   0  0  0  0  0  0  0  0  0  0  0  0
    5.2130   13.7210   10.5500 C   0  0  0  0  0  0  0  0  0  0  0  0
    6.0240   14.2810    9.5690 C   0  0  0  0  0  0  0  0  0  0  0  0
    9.6230   20.8670   18.6240 H   0  0  0  0  0  0  0  0  0  0  0  0
    9.2530   22.8430   17.2290 H   0  0  0  0  0  0  0  0  0  0  0  0
    7.7430   19.4510   19.2650 H   0  0  0  0  0  0  0  0  0  0  0  0
    6.9850   23.4370   16.5150 H   0  0  0  0  0  0  0  0  0  0  0  0
    5.0870   22.0520   17.1900 H   0  0  0  0  0  0  0  0  0  0  0  0
    3.5640   20.3520   16.2330 H   0  0  0  0  0  0  0  0  0  0  0  0
    5.1890   19.8020   16.0330 H   0  0  0  0  0  0  0  0  0  0  0  0
    3.2200   18.0890   19.3060 H   0  0  0  0  0  0  0  0  0  0  0  0
    2.2530   19.1940   18.3810 H   0  0  0  0  0  0  0  0  0  0  0  0
    3.6480   18.6580   14.5130 H   0  0  0  0  0  0  0  0  0  0  0  0
    4.4620   17.5420   15.5670 H   0  0  0  0  0  0  0  0  0  0  0  0
    2.6960   15.8210   15.2780 H   0  0  0  0  0  0  0  0  0  0  0  0
    3.2820   16.5120   17.4560 H   0  0  0  0  0  0  0  0  0  0  0  0
    1.6530   16.9830   17.7970 H   0  0  0  0  0  0  0  0  0  0  0  0
    0.6090   15.7160   16.5490 H   0  0  0  0  0  0  0  0  0  0  0  0
   -0.1390   16.9180   15.4810 H   0  0  0  0  0  0  0  0  0  0  0  0
   -0.0750   15.4300   13.8310 H   0  0  0  0  0  0  0  0  0  0  0  0
    2.0100   16.4150   11.0160 H   0  0  0  0  0  0  0  0  0  0  0  0
    3.1400   17.7100   11.2680 H   0  0  0  0  0  0  0  0  0  0  0  0
    4.7350   17.3900    9.5140 H   0  0  0  0  0  0  0  0  0  0  0  0
    6.4610   16.0340    8.4420 H   0  0  0  0  0  0  0  0  0  0  0  0
    3.6030   14.0530   11.8930 H   0  0  0  0  0  0  0  0  0  0  0  0
    5.3470   12.7090   10.8350 H   0  0  0  0  0  0  0  0  0  0  0  0
    6.7670   13.6900    9.1060 H   0  0  0  0  0  0  0  0  0  0  0  0
  1  2  2  0  0  0  0
  1  3  1  0  0  0  0
  1 28  1  0  0  0  0
  2  4  1  0  0  0  0
  2 29  1  0  0  0  0
  3  5  2  0  0  0  0
  3 30  1  0  0  0  0
  4  6  2  0  0  0  0
  4 31  1  0  0  0  0
  5  6  1  0  0  0  0
  5  7  1  0  0  0  0
  6 32  1  0  0  0  0
  7  8  1  0  0  0  0
  7 10  2  0  0  0  0
  8  9  1  0  0  0  0
  8 11  1  0  0  0  0
  9 12  1  0  0  0  0
  9 33  1  0  0  0  0
  9 34  1  0  0  0  0
 11 15  1  0  0  0  0
 11 35  1  0  0  0  0
 11 36  1  0  0  0  0
 12 13  1  0  0  0  0
 12 37  1  0  0  0  0
 12 38  1  0  0  0  0
 13 14  1  0  0  0  0
 13 15  1  0  0  0  0
 14 16  1  0  0  0  0
 14 17  1  0  0  0  0
 14 39  1  0  0  0  0
 15 40  1  0  0  0  0
 15 41  1  0  0  0  0
 16 18  2  0  0  0  0
 16 20  1  0  0  0  0
 17 19  1  0  0  0  0
 17 42  1  0  0  0  0
 17 43  1  0  0  0  0
 19 44  1  0  0  0  0
 20 21  1  0  0  0  0
 21 22  1  0  0  0  0
 21 45  1  0  0  0  0
 21 46  1  0  0  0  0
 22 23  2  0  0  0  0
 22 25  1  0  0  0  0
 23 24  1  0  0  0  0
 23 47  1  0  0  0  0
 24 27  2  0  0  0  0
 24 48  1  0  0  0  0
 25 26  2  0  0  0  0
 25 49  1  0  0  0  0
 26 27  1  0  0  0  0
 26 50  1  0  0  0  0
 27 51  1  0  0  0  0
M  END
> <rseq>
1

> <mseq>
160

> <S>
-6.363864

> <rmsd_refine>
1.182352

> <E_conf>
122.3349

> <E_score1>
-8.656775

> <E_refine>
-33.80014

> <E_score2>
-6.363864

>  <$File>
outputs/pdb_4j58_cleaned.pdb_2024_06_17__22_47_40_V2_BS398_MIN1_/SDF/sdf_db.sdf

> <Rec_index>
1

>  <PLIF_raw>
[[10,22,25,26,27,24,23],[1499,823,823,823,823,823,823],[101,54,54,54,54,54,54],[4,10,10,10,10,10,10],[3.2,0.7,0.7,0.7,0.7,0.7,0.7]]

> <FP:PLIF>
2 11 12

>  <PLIF_ligidx>
[[22,25,26,27,24,23],10,10]

$$$$
160
  MOE2022           3D

 51 53  0  0  1  0  0  0  0  0999 V2000
    7.5200   20.5650   18.9300 C   0  0  0  0  0  0  0  0  0  0  0  0
    8.5780   21.3950   18.5830 C   0  0  0  0  0  0  0  0  0  0  0  0
    6.3730   20.4910   18.1270 C   0  0  0  0  0  0  0  0  0  0  0  0
    5.3040   19.5820   18.5130 C   0  0  0  0  0  0  0  0  0  0  0  0
    4.2850   19.1760   17.7110 C   0  0  0  0  0  0  0  0  0  0  0  0
    8.5070   22.1700   17.4320 C   0  0  0  0  0  0  0  0  0  0  0  0
    3.2980   18.1870   18.1390 C   0  0  0  0  0  0  0  0  0  0  0  0
    2.3240   17.7160   17.2430 N   0  0  0  0  0  0  0  0  0  0  0  0
    3.3470   17.7260   19.2760 O   0  0  0  0  0  0  0  0  0  0  0  0
    6.3120   21.2880   16.9730 C   0  0  0  0  0  0  0  0  0  0  0  0
    7.3730   22.1180   16.6290 C   0  0  0  0  0  0  0  0  0  0  0  0
    2.4120   18.0830   15.8010 C   0  0  0  0  0  0  0  0  0  0  0  0
    1.1680   16.8030   17.5740 C   0  0  2  0  0  0  0  0  0  0  0  0
   -0.1310   17.3430   16.9390 C   0  0  0  0  0  0  0  0  0  0  0  0
    0.9180   16.4350   19.0500 C   0  0  0  0  0  0  0  0  0  0  0  0
    1.3820   17.4010   14.8770 C   0  0  2  0  0  0  0  0  0  0  0  0
    1.4680   17.9160   13.5070 N   0  0  0  0  0  0  0  0  0  0  0  0
   -0.0410   17.5860   15.4220 C   0  0  0  0  0  0  0  0  0  0  0  0
    2.3940   17.4520   12.5600 C   0  0  0  0  0  0  0  0  0  0  0  0
    2.8530   18.3650   11.6080 C   0  0  0  0  0  0  0  0  0  0  0  0
    3.7660   17.9460   10.6490 C   0  0  0  0  0  0  0  0  0  0  0  0
    2.8390   16.1210   12.5260 C   0  0  0  0  0  0  0  0  0  0  0  0
    4.2070   18.8600    9.7380 O   0  0  0  0  0  0  0  0  0  0  0  0
    4.2510   16.6260   10.6080 C   0  0  0  0  0  0  0  0  0  0  0  0
    3.7510   15.7200   11.5570 C   0  0  0  0  0  0  0  0  0  0  0  0
    5.2760   16.2100    9.6570 C   0  0  0  0  0  0  0  0  0  0  0  0
    5.1920   16.5440    8.4440 O   0  5  0  0  0  0  0  0  0  0  0  0
    6.2680   15.5580   10.0800 O   0  0  0  0  0  0  0  0  0  0  0  0
    7.5880   19.9740   19.8070 H   0  0  0  0  0  0  0  0  0  0  0  0
    9.4440   21.4350   19.1940 H   0  0  0  0  0  0  0  0  0  0  0  0
    5.3740   19.1930   19.4950 H   0  0  0  0  0  0  0  0  0  0  0  0
    4.2050   19.5570   16.7300 H   0  0  0  0  0  0  0  0  0  0  0  0
    9.3150   22.7980   17.1680 H   0  0  0  0  0  0  0  0  0  0  0  0
    5.4550   21.2690   16.3530 H   0  0  0  0  0  0  0  0  0  0  0  0
    7.3180   22.7150   15.7560 H   0  0  0  0  0  0  0  0  0  0  0  0
    2.2910   19.1530   15.7040 H   0  0  0  0  0  0  0  0  0  0  0  0
    3.4030   17.8580   15.4290 H   0  0  0  0  0  0  0  0  0  0  0  0
    1.3760   15.8640   17.0830 H   0  0  0  0  0  0  0  0  0  0  0  0
   -0.9450   16.6420   17.1290 H   0  0  0  0  0  0  0  0  0  0  0  0
   -0.3800   18.2860   17.4280 H   0  0  0  0  0  0  0  0  0  0  0  0
    0.7890   17.3290   19.6600 H   0  0  0  0  0  0  0  0  0  0  0  0
    0.0180   15.8270   19.1450 H   0  0  0  0  0  0  0  0  0  0  0  0
    1.7420   15.8430   19.4480 H   0  0  0  0  0  0  0  0  0  0  0  0
    1.6030   16.3350   14.8760 H   0  0  0  0  0  0  0  0  0  0  0  0
    1.2920   18.9300   13.4520 H   0  0  0  0  0  0  0  0  0  0  0  0
   -0.7050   16.8950   14.9020 H   0  0  0  0  0  0  0  0  0  0  0  0
   -0.3780   18.6030   15.2140 H   0  0  0  0  0  0  0  0  0  0  0  0
    2.5080   19.3660   11.6160 H   0  0  0  0  0  0  0  0  0  0  0  0
    2.4780   15.4120   13.2240 H   0  0  0  0  0  0  0  0  0  0  0  0
    4.7550   18.4020    9.0650 H   0  0  0  0  0  0  0  0  0  0  0  0
    4.0840   14.7140   11.5400 H   0  0  0  0  0  0  0  0  0  0  0  0
  1  2  1  0  0  0  0
  1  3  2  0  0  0  0
  1 29  1  0  0  0  0
  2  6  2  0  0  0  0
  2 30  1  0  0  0  0
  3  4  1  0  0  0  0
  3 10  1  0  0  0  0
  4  5  2  0  0  0  0
  4 31  1  0  0  0  0
  5  7  1  0  0  0  0
  5 32  1  0  0  0  0
  6 11  1  0  0  0  0
  6 33  1  0  0  0  0
  7  8  1  0  0  0  0
  7  9  2  0  0  0  0
  8 12  1  0  0  0  0
  8 13  1  0  0  0  0
 10 11  2  0  0  0  0
 10 34  1  0  0  0  0
 11 35  1  0  0  0  0
 12 16  1  0  0  0  0
 12 36  1  0  0  0  0
 12 37  1  0  0  0  0
 13 14  1  0  0  0  0
 13 15  1  0  0  0  0
 13 38  1  0  0  0  0
 14 18  1  0  0  0  0
 14 39  1  0  0  0  0
 14 40  1  0  0  0  0
 15 41  1  0  0  0  0
 15 42  1  0  0  0  0
 15 43  1  0  0  0  0
 16 17  1  0  0  0  0
 16 18  1  0  0  0  0
 16 44  1  0  0  0  0
 17 19  1  0  0  0  0
 17 45  1  0  0  0  0
 18 46  1  0  0  0  0
 18 47  1  0  0  0  0
 19 20  1  0  0  0  0
 19 22  2  0  0  0  0
 20 21  2  0  0  0  0
 20 48  1  0  0  0  0
 21 23  1  0  0  0  0
 21 24  1  0  0  0  0
 22 25  1  0  0  0  0
 22 49  1  0  0  0  0
 23 50  1  0  0  0  0
 24 25  2  0  0  0  0
 24 26  1  0  0  0  0
 25 51  1  0  0  0  0
 26 27  1  0  0  0  0
 26 28  2  0  0  0  0
M  CHG  1  27  -1
M  END
> <rseq>
1

> <mseq>
161

> <S>
-6.234978

> <rmsd_refine>
0.9949639

> <E_conf>
-112.7733

> <E_score1>
-9.951984

> <E_refine>
-32.59301

> <E_score2>
-6.234978

>  <$File>
outputs/pdb_4j58_cleaned.pdb_2024_06_17__22_47_40_V2_BS398_MIN1_/SDF/sdf_db.sdf

> <Rec_index>
1

>  <PLIF_raw>
[[28,28,2,2,2,2,2,2],[823,823,1650,1653,1657,1659,1655,1651],[54,54,112,112,112,112,112,112],[2,7,10,10,10,10,10,10],[2.8,3.661140587,0.6,0.6,0.6,0.6,0.6,0.6]]

> <FP:PLIF>
6 19 1 16 15

>  <PLIF_ligidx>
[28,28,28,28,[2,2,2,2,2,2]]

$$$$
161
  MOE2022           3D

 56 58  0  0  1  0  0  0  0  0999 V2000
    6.1690   20.9390   18.3560 C   0  0  0  0  0  0  0  0  0  0  0  0
    5.5000   21.9420   17.6620 C   0  0  0  0  0  0  0  0  0  0  0  0
    5.5180   19.7480   18.6560 C   0  0  0  0  0  0  0  0  0  0  0  0
    4.1770   21.7540   17.2720 C   0  0  0  0  0  0  0  0  0  0  0  0
    4.1900   19.5390   18.2600 C   0  0  0  0  0  0  0  0  0  0  0  0
    3.5240   20.5630   17.5710 C   0  0  0  0  0  0  0  0  0  0  0  0
    3.5040   18.2870   18.5930 C   0  0  0  0  0  0  0  0  0  0  0  0
    2.6680   17.6740   17.6660 N   0  0  0  0  0  0  0  0  0  0  0  0
    3.1500   17.5970   16.2690 C   0  0  0  0  0  0  0  0  0  0  0  0
    3.6640   17.7430   19.6820 O   0  0  0  0  0  0  0  0  0  0  0  0
    1.7130   16.6010   18.0900 C   0  0  1  0  0  0  0  0  0  0  0  0
    1.0150   16.9490   19.3260 N   0  0  0  0  0  0  0  0  0  0  0  0
    0.6680   16.2570   16.9990 C   0  0  0  0  0  0  0  0  0  0  0  0
    1.1930   16.1400   15.5890 N   0  3  1  0  0  0  0  0  0  0  0  0
    0.1030   15.8610   14.5830 C   0  0  0  0  0  0  0  0  0  0  0  0
    0.5140   15.9150   13.1010 C   0  0  0  0  0  0  0  0  0  0  0  0
    1.6650   14.9590   12.7450 C   0  0  0  0  0  0  0  0  0  0  0  0
    0.5540   15.9920   20.1880 C   0  0  0  0  0  0  0  0  0  0  0  0
    2.5840   15.2940   11.8060 N   0  0  0  0  0  0  0  0  0  0  0  0
    2.0380   17.3310   15.2540 C   0  0  0  0  0  0  0  0  0  0  0  0
    0.4750   14.8020   19.8830 O   0  0  0  0  0  0  0  0  0  0  0  0
    1.7320   13.8970   13.3640 O   0  0  0  0  0  0  0  0  0  0  0  0
    2.7420   16.6750   11.2910 C   0  0  0  0  0  0  0  0  0  0  0  0
    3.6820   14.3380   11.5380 C   0  0  0  0  0  0  0  0  0  0  0  0
    0.1800   16.4630   21.4100 N   0  0  0  0  0  0  0  0  0  0  0  0
    4.6060   14.6930   10.3610 C   0  0  0  0  0  0  0  0  0  0  0  0
    3.7260   16.8280   10.1190 C   0  0  0  0  0  0  0  0  0  0  0  0
    4.9110   16.0780   10.3300 O   0  0  0  0  0  0  0  0  0  0  0  0
    7.1750   21.0830   18.6560 H   0  0  0  0  0  0  0  0  0  0  0  0
    5.9960   22.8500   17.4330 H   0  0  0  0  0  0  0  0  0  0  0  0
    6.0360   18.9950   19.1890 H   0  0  0  0  0  0  0  0  0  0  0  0
    3.6650   22.5220   16.7510 H   0  0  0  0  0  0  0  0  0  0  0  0
    2.5130   20.4360   17.2810 H   0  0  0  0  0  0  0  0  0  0  0  0
    3.6750   18.4940   15.9730 H   0  0  0  0  0  0  0  0  0  0  0  0
    3.8790   16.8020   16.1910 H   0  0  0  0  0  0  0  0  0  0  0  0
    2.2970   15.7080   18.2740 H   0  0  0  0  0  0  0  0  0  0  0  0
    1.1850   17.8970   19.6930 H   0  0  0  0  0  0  0  0  0  0  0  0
    0.1540   15.3560   17.3060 H   0  0  0  0  0  0  0  0  0  0  0  0
   -0.0980   17.0200   17.0490 H   0  0  0  0  0  0  0  0  0  0  0  0
    1.8030   15.3310   15.5780 H   0  0  0  0  0  0  0  0  0  0  0  0
   -0.3420   14.8920   14.7660 H   0  0  0  0  0  0  0  0  0  0  0  0
   -0.7220   16.5500   14.7120 H   0  0  0  0  0  0  0  0  0  0  0  0
   -0.3480   15.6460   12.4910 H   0  0  0  0  0  0  0  0  0  0  0  0
    0.7600   16.9480   12.8720 H   0  0  0  0  0  0  0  0  0  0  0  0
    1.4330   18.2250   15.1840 H   0  0  0  0  0  0  0  0  0  0  0  0
    2.4920   17.2360   14.2770 H   0  0  0  0  0  0  0  0  0  0  0  0
    1.7880   17.0770   10.9770 H   0  0  0  0  0  0  0  0  0  0  0  0
    3.0830   17.3080   12.1000 H   0  0  0  0  0  0  0  0  0  0  0  0
    4.2800   14.2540   12.4290 H   0  0  0  0  0  0  0  0  0  0  0  0
    3.2830   13.3450   11.3770 H   0  0  0  0  0  0  0  0  0  0  0  0
   -0.1240   16.7340   22.3580 H   0  0  0  0  0  0  0  0  0  0  0  0
    0.3760   17.4570   21.2240 H   0  0  0  0  0  0  0  0  0  0  0  0
    5.5340   14.1250   10.4450 H   0  0  0  0  0  0  0  0  0  0  0  0
    4.1280   14.4100    9.4210 H   0  0  0  0  0  0  0  0  0  0  0  0
    3.2510   16.4950    9.1940 H   0  0  0  0  0  0  0  0  0  0  0  0
    3.9880   17.8790    9.9970 H   0  0  0  0  0  0  0  0  0  0  0  0
  1  2  2  0  0  0  0
  1  3  1  0  0  0  0
  1 29  1  0  0  0  0
  2  4  1  0  0  0  0
  2 30  1  0  0  0  0
  3  5  2  0  0  0  0
  3 31  1  0  0  0  0
  4  6  2  0  0  0  0
  4 32  1  0  0  0  0
  5  6  1  0  0  0  0
  5  7  1  0  0  0  0
  6 33  1  0  0  0  0
  7  8  1  0  0  0  0
  7 10  2  0  0  0  0
  8  9  1  0  0  0  0
  8 11  1  0  0  0  0
  9 20  1  0  0  0  0
  9 34  1  0  0  0  0
  9 35  1  0  0  0  0
 11 12  1  0  0  0  0
 11 13  1  0  0  0  0
 11 36  1  0  0  0  0
 12 18  1  0  0  0  0
 12 37  1  0  0  0  0
 13 14  1  0  0  0  0
 13 38  1  0  0  0  0
 13 39  1  0  0  0  0
 14 15  1  0  0  0  0
 14 20  1  0  0  0  0
 14 40  1  0  0  0  0
 15 16  1  0  0  0  0
 15 41  1  0  0  0  0
 15 42  1  0  0  0  0
 16 17  1  0  0  0  0
 16 43  1  0  0  0  0
 16 44  1  0  0  0  0
 17 19  1  0  0  0  0
 17 22  2  0  0  0  0
 18 21  2  0  0  0  0
 18 25  1  0  0  0  0
 19 23  1  0  0  0  0
 19 24  1  0  0  0  0
 20 45  1  0  0  0  0
 20 46  1  0  0  0  0
 23 27  1  0  0  0  0
 23 47  1  0  0  0  0
 23 48  1  0  0  0  0
 24 26  1  0  0  0  0
 24 49  1  0  0  0  0
 24 50  1  0  0  0  0
 25 51  1  0  0  0  0
 25 52  1  0  0  0  0
 26 28  1  0  0  0  0
 26 53  1  0  0  0  0
 26 54  1  0  0  0  0
 27 28  1  0  0  0  0
 27 55  1  0  0  0  0
 27 56  1  0  0  0  0
M  CHG  1  14   1
M  END
> <rseq>
1

> <mseq>
162

> <S>
-6.003579

> <rmsd_refine>
1.957406

> <E_conf>
-56.01979

> <E_score1>
-9.363669

> <E_refine>
-34.84775

> <E_score2>
-6.003579

>  <$File>
outputs/pdb_4j58_cleaned.pdb_2024_06_17__22_47_40_V2_BS398_MIN1_/SDF/sdf_db.sdf

> <Rec_index>
1

>  <PLIF_raw>
[[21,28],[1212,823],[81,54],[2,2],[6.3,2.1]]

> <FP:PLIF>
6 19 17 18

>  <PLIF_ligidx>
[28,28,21,21]

$$$$
162
  MOE2022           3D

 58 60  0  0  1  0  0  0  0  0999 V2000
    6.6300   21.0460   18.9120 C   0  0  0  0  0  0  0  0  0  0  0  0
    6.0330   22.2210   18.4640 C   0  0  0  0  0  0  0  0  0  0  0  0
    5.9030   19.8610   18.9340 C   0  0  0  0  0  0  0  0  0  0  0  0
    4.7070   22.2080   18.0390 C   0  0  0  0  0  0  0  0  0  0  0  0
    4.5690   19.8330   18.5070 C   0  0  0  0  0  0  0  0  0  0  0  0
    3.9780   21.0240   18.0620 C   0  0  0  0  0  0  0  0  0  0  0  0
    3.7970   18.5880   18.5700 C   0  0  0  0  0  0  0  0  0  0  0  0
    3.0790   18.1320   17.4650 N   0  0  0  0  0  0  0  0  0  0  0  0
    3.6760   18.3780   16.1320 C   0  0  0  0  0  0  0  0  0  0  0  0
    3.7830   17.9100   19.5920 O   0  0  0  0  0  0  0  0  0  0  0  0
    2.1460   16.9610   17.6230 C   0  0  1  0  0  0  0  0  0  0  0  0
    1.2070   17.1890   18.7220 N   0  0  0  0  0  0  0  0  0  0  0  0
    1.3550   16.6030   16.3380 C   0  0  0  0  0  0  0  0  0  0  0  0
    2.0980   16.7380   15.0280 N   0  3  1  0  0  0  0  0  0  0  0  0
    1.2350   16.4270   13.8260 C   0  0  0  0  0  0  0  0  0  0  0  0
    1.9110   16.5370   12.4440 C   0  0  0  0  0  0  0  0  0  0  0  0
    3.0540   15.5400   12.2020 C   0  0  0  0  0  0  0  0  0  0  0  0
    0.9170   16.2150   19.6390 C   0  0  0  0  0  0  0  0  0  0  0  0
    3.7920   15.6160   11.0660 N   0  0  0  0  0  0  0  0  0  0  0  0
    2.7460   18.0820   14.9560 C   0  0  0  0  0  0  0  0  0  0  0  0
    1.0770   15.0150   19.4400 O   0  0  0  0  0  0  0  0  0  0  0  0
    3.2690   14.6950   13.0700 O   0  0  0  0  0  0  0  0  0  0  0  0
    3.7240   16.7520   10.1140 C   0  0  0  0  0  0  0  0  0  0  0  0
    4.8850   14.6430   10.8090 C   0  0  0  0  0  0  0  0  0  0  0  0
    0.4150   16.6660   20.8150 N   0  0  0  0  0  0  0  0  0  0  0  0
    5.0330   14.2450    9.3340 C   0  0  0  0  0  0  0  0  0  0  0  0
    5.1410   15.4680    8.4180 C   0  0  0  0  0  0  0  0  0  0  0  0
    3.9050   16.3450    8.6420 C   0  0  0  0  0  0  0  0  0  0  0  0
    7.6390   21.0560   19.2360 H   0  0  0  0  0  0  0  0  0  0  0  0
    6.5880   23.1240   18.4460 H   0  0  0  0  0  0  0  0  0  0  0  0
    6.3690   18.9760   19.2760 H   0  0  0  0  0  0  0  0  0  0  0  0
    4.2520   23.1030   17.7020 H   0  0  0  0  0  0  0  0  0  0  0  0
    2.9660   21.0260   17.7490 H   0  0  0  0  0  0  0  0  0  0  0  0
    4.0220   19.3960   16.0330 H   0  0  0  0  0  0  0  0  0  0  0  0
    4.5570   17.7630   16.0240 H   0  0  0  0  0  0  0  0  0  0  0  0
    2.7540   16.0980   17.8650 H   0  0  0  0  0  0  0  0  0  0  0  0
    1.1100   18.1670   19.0310 H   0  0  0  0  0  0  0  0  0  0  0  0
    0.9500   15.6090   16.4660 H   0  0  0  0  0  0  0  0  0  0  0  0
    0.4780   17.2360   16.3300 H   0  0  0  0  0  0  0  0  0  0  0  0
    2.8360   16.0450   15.0340 H   0  0  0  0  0  0  0  0  0  0  0  0
    0.8160   15.4320   13.9060 H   0  0  0  0  0  0  0  0  0  0  0  0
    0.3640   17.0690   13.8110 H   0  0  0  0  0  0  0  0  0  0  0  0
    1.1480   16.3620   11.6840 H   0  0  0  0  0  0  0  0  0  0  0  0
    2.2760   17.5550   12.3140 H   0  0  0  0  0  0  0  0  0  0  0  0
    2.0020   18.8670   14.9160 H   0  0  0  0  0  0  0  0  0  0  0  0
    3.3150   18.2050   14.0440 H   0  0  0  0  0  0  0  0  0  0  0  0
    2.7890   17.2870   10.1910 H   0  0  0  0  0  0  0  0  0  0  0  0
    4.4910   17.4690   10.3750 H   0  0  0  0  0  0  0  0  0  0  0  0
    5.8230   15.0700   11.1320 H   0  0  0  0  0  0  0  0  0  0  0  0
    4.7560   13.7450   11.3970 H   0  0  0  0  0  0  0  0  0  0  0  0
    0.3370   16.0230   21.6130 H   0  0  0  0  0  0  0  0  0  0  0  0
    0.3340   17.6790   20.9810 H   0  0  0  0  0  0  0  0  0  0  0  0
    5.9250   13.6280    9.2200 H   0  0  0  0  0  0  0  0  0  0  0  0
    4.1640   13.6530    9.0420 H   0  0  0  0  0  0  0  0  0  0  0  0
    6.0440   16.0320    8.6590 H   0  0  0  0  0  0  0  0  0  0  0  0
    5.1840   15.1490    7.3760 H   0  0  0  0  0  0  0  0  0  0  0  0
    3.0190   15.7950    8.3230 H   0  0  0  0  0  0  0  0  0  0  0  0
    3.9880   17.2460    8.0330 H   0  0  0  0  0  0  0  0  0  0  0  0
  1  2  2  0  0  0  0
  1  3  1  0  0  0  0
  1 29  1  0  0  0  0
  2  4  1  0  0  0  0
  2 30  1  0  0  0  0
  3  5  2  0  0  0  0
  3 31  1  0  0  0  0
  4  6  2  0  0  0  0
  4 32  1  0  0  0  0
  5  6  1  0  0  0  0
  5  7  1  0  0  0  0
  6 33  1  0  0  0  0
  7  8  1  0  0  0  0
  7 10  2  0  0  0  0
  8  9  1  0  0  0  0
  8 11  1  0  0  0  0
  9 20  1  0  0  0  0
  9 34  1  0  0  0  0
  9 35  1  0  0  0  0
 11 12  1  0  0  0  0
 11 13  1  0  0  0  0
 11 36  1  0  0  0  0
 12 18  1  0  0  0  0
 12 37  1  0  0  0  0
 13 14  1  0  0  0  0
 13 38  1  0  0  0  0
 13 39  1  0  0  0  0
 14 15  1  0  0  0  0
 14 20  1  0  0  0  0
 14 40  1  0  0  0  0
 15 16  1  0  0  0  0
 15 41  1  0  0  0  0
 15 42  1  0  0  0  0
 16 17  1  0  0  0  0
 16 43  1  0  0  0  0
 16 44  1  0  0  0  0
 17 19  1  0  0  0  0
 17 22  2  0  0  0  0
 18 21  2  0  0  0  0
 18 25  1  0  0  0  0
 19 23  1  0  0  0  0
 19 24  1  0  0  0  0
 20 45  1  0  0  0  0
 20 46  1  0  0  0  0
 23 28  1  0  0  0  0
 23 47  1  0  0  0  0
 23 48  1  0  0  0  0
 24 26  1  0  0  0  0
 24 49  1  0  0  0  0
 24 50  1  0  0  0  0
 25 51  1  0  0  0  0
 25 52  1  0  0  0  0
 26 27  1  0  0  0  0
 26 53  1  0  0  0  0
 26 54  1  0  0  0  0
 27 28  1  0  0  0  0
 27 55  1  0  0  0  0
 27 56  1  0  0  0  0
 28 57  1  0  0  0  0
 28 58  1  0  0  0  0
M  CHG  1  14   1
M  END
> <rseq>
1

> <mseq>
163

> <S>
-6.149932

> <rmsd_refine>
1.307083

> <E_conf>
-128.5166

> <E_score1>
-9.265765

> <E_refine>
-27.84324

> <E_score2>
-6.149932

>  <$File>
outputs/pdb_4j58_cleaned.pdb_2024_06_17__22_47_40_V2_BS398_MIN1_/SDF/sdf_db.sdf

> <Rec_index>
1

>  <PLIF_raw>
[21,1212,81,2,1.1]

> <FP:PLIF>
17

>  <PLIF_ligidx>
21

$$$$
163
  MOE2022           3D

 48 50  0  0  0  0  0  0  0  0999 V2000
    8.5540   21.1220   18.3210 C   0  0  0  0  0  0  0  0  0  0  0  0
    8.3260   22.2900   17.6040 C   0  0  0  0  0  0  0  0  0  0  0  0
    7.4960   20.2690   18.6150 C   0  0  0  0  0  0  0  0  0  0  0  0
    6.2000   20.5810   18.2010 C   0  0  0  0  0  0  0  0  0  0  0  0
    5.9760   21.7650   17.4980 C   0  0  0  0  0  0  0  0  0  0  0  0
    5.0520   19.6460   18.5460 C   0  0  0  0  0  0  0  0  0  0  0  0
    4.1780   19.1520   17.3890 C   0  0  0  0  0  0  0  0  0  0  0  0
    3.0010   18.3720   17.5830 N   0  0  0  0  0  0  0  0  0  0  0  0
    7.0370   22.6150   17.1960 C   0  0  0  0  0  0  0  0  0  0  0  0
    2.7330   17.6090   18.7550 C   0  0  0  0  0  0  0  0  0  0  0  0
    1.9840   18.4360   16.4840 C   0  0  0  0  0  0  0  0  0  0  0  0
    1.4640   16.7740   18.8800 C   0  0  0  0  0  0  0  0  0  0  0  0
    4.4650   19.4590   16.2470 O   0  0  0  0  0  0  0  0  0  0  0  0
    1.2030   16.1650   20.2700 C   0  0  0  0  0  0  0  0  0  0  0  0
    1.9700   17.2980   15.4700 C   0  0  0  0  0  0  0  0  0  0  0  0
    2.8430   17.2840   14.3800 C   0  0  0  0  0  0  0  0  0  0  0  0
    1.0290   16.2730   15.5940 C   0  0  0  0  0  0  0  0  0  0  0  0
    2.7690   16.2470   13.4480 C   0  0  0  0  0  0  0  0  0  0  0  0
    3.5420   17.5730   19.6570 O   0  0  0  0  0  0  0  0  0  0  0  0
    0.9940   15.2230   14.6830 C   0  0  0  0  0  0  0  0  0  0  0  0
    3.5960   16.2850   12.3380 O   0  0  0  0  0  0  0  0  0  0  0  0
    1.8710   15.1930   13.6050 C   0  0  0  0  0  0  0  0  0  0  0  0
    3.6580   15.2660   11.3810 C   0  0  0  0  0  0  0  0  0  0  0  0
    2.8400   14.1950   11.5010 C   0  0  0  0  0  0  0  0  0  0  0  0
    4.6420   15.4560   10.3090 C   0  0  0  0  0  0  0  0  0  0  0  0
    1.8420   14.0440   12.6230 C   0  0  0  0  0  0  0  0  0  0  0  0
    5.2540   16.5530   10.2060 O   0  5  0  0  0  0  0  0  0  0  0  0
    4.8710   14.5140    9.5040 O   0  0  0  0  0  0  0  0  0  0  0  0
    9.5330   20.8800   18.6440 H   0  0  0  0  0  0  0  0  0  0  0  0
    9.1340   22.9310   17.3700 H   0  0  0  0  0  0  0  0  0  0  0  0
    7.6840   19.3800   19.1600 H   0  0  0  0  0  0  0  0  0  0  0  0
    4.9960   22.0210   17.1870 H   0  0  0  0  0  0  0  0  0  0  0  0
    5.4720   18.8060   19.0690 H   0  0  0  0  0  0  0  0  0  0  0  0
    4.4270   20.1350   19.2760 H   0  0  0  0  0  0  0  0  0  0  0  0
    6.8620   23.5090   16.6550 H   0  0  0  0  0  0  0  0  0  0  0  0
    0.9950   18.5480   16.9040 H   0  0  0  0  0  0  0  0  0  0  0  0
    2.0890   19.3640   15.9390 H   0  0  0  0  0  0  0  0  0  0  0  0
    0.5970   17.3520   18.5990 H   0  0  0  0  0  0  0  0  0  0  0  0
    1.5340   15.9570   18.1800 H   0  0  0  0  0  0  0  0  0  0  0  0
    1.0780   16.9460   21.0170 H   0  0  0  0  0  0  0  0  0  0  0  0
    0.2950   15.5620   20.2510 H   0  0  0  0  0  0  0  0  0  0  0  0
    2.0320   15.5250   20.5730 H   0  0  0  0  0  0  0  0  0  0  0  0
    3.5480   18.0630   14.2430 H   0  0  0  0  0  0  0  0  0  0  0  0
    0.3240   16.2880   16.3830 H   0  0  0  0  0  0  0  0  0  0  0  0
    0.2900   14.4460   14.8150 H   0  0  0  0  0  0  0  0  0  0  0  0
    2.8680   13.4030   10.7980 H   0  0  0  0  0  0  0  0  0  0  0  0
    2.0430   13.1220   13.1480 H   0  0  0  0  0  0  0  0  0  0  0  0
    0.8490   13.9500   12.2050 H   0  0  0  0  0  0  0  0  0  0  0  0
  1  2  1  0  0  0  0
  1  3  2  0  0  0  0
  1 29  1  0  0  0  0
  2  9  2  0  0  0  0
  2 30  1  0  0  0  0
  3  4  1  0  0  0  0
  3 31  1  0  0  0  0
  4  5  2  0  0  0  0
  4  6  1  0  0  0  0
  5  9  1  0  0  0  0
  5 32  1  0  0  0  0
  6  7  1  0  0  0  0
  6 33  1  0  0  0  0
  6 34  1  0  0  0  0
  7  8  1  0  0  0  0
  7 13  2  0  0  0  0
  8 10  1  0  0  0  0
  8 11  1  0  0  0  0
  9 35  1  0  0  0  0
 10 12  1  0  0  0  0
 10 19  2  0  0  0  0
 11 15  1  0  0  0  0
 11 36  1  0  0  0  0
 11 37  1  0  0  0  0
 12 14  1  0  0  0  0
 12 38  1  0  0  0  0
 12 39  1  0  0  0  0
 14 40  1  0  0  0  0
 14 41  1  0  0  0  0
 14 42  1  0  0  0  0
 15 16  2  0  0  0  0
 15 17  1  0  0  0  0
 16 18  1  0  0  0  0
 16 43  1  0  0  0  0
 17 20  2  0  0  0  0
 17 44  1  0  0  0  0
 18 21  1  0  0  0  0
 18 22  2  0  0  0  0
 20 22  1  0  0  0  0
 20 45  1  0  0  0  0
 21 23  1  0  0  0  0
 22 26  1  0  0  0  0
 23 24  2  0  0  0  0
 23 25  1  0  0  0  0
 24 26  1  0  0  0  0
 24 46  1  0  0  0  0
 25 27  1  0  0  0  0
 25 28  2  0  0  0  0
 26 47  1  0  0  0  0
 26 48  1  0  0  0  0
M  CHG  1  27  -1
M  END
> <rseq>
1

> <mseq>
164

> <S>
-6.647325

> <rmsd_refine>
0.9143596

> <E_conf>
-68.82091

> <E_score1>
-10.86567

> <E_refine>
-36.80209

> <E_score2>
-6.647325

>  <$File>
outputs/pdb_4j58_cleaned.pdb_2024_06_17__22_47_40_V2_BS398_MIN1_/SDF/sdf_db.sdf

> <Rec_index>
1

>  <PLIF_raw>
[[27,27,27],[823,823,829],[54,54,54],[2,7,7],[4.1,5.355327755,1.303238814]]

> <FP:PLIF>
6 19 1 16

>  <PLIF_ligidx>
[27,27,[27,27],27]

$$$$
164
  MOE2022           3D

 49 51  0  0  1  0  0  0  0  0999 V2000
    8.3430   20.6720   18.6300 C   0  0  0  0  0  0  0  0  0  0  0  0
    8.4440   21.9250   18.0360 C   0  0  0  0  0  0  0  0  0  0  0  0
    7.0940   20.0910   18.8220 C   0  0  0  0  0  0  0  0  0  0  0  0
    5.9380   20.7570   18.4160 C   0  0  0  0  0  0  0  0  0  0  0  0
    6.0460   22.0120   17.8170 C   0  0  0  0  0  0  0  0  0  0  0  0
    7.2960   22.5960   17.6300 C   0  0  0  0  0  0  0  0  0  0  0  0
    4.5780   20.1140   18.6160 C   0  0  0  0  0  0  0  0  0  0  0  0
    4.1260   19.2010   17.4770 C   0  0  0  0  0  0  0  0  0  0  0  0
    3.0340   18.2900   17.5910 N   0  0  0  0  0  0  0  0  0  0  0  0
    2.7200   17.6370   18.8200 C   0  0  0  0  0  0  0  0  0  0  0  0
    2.4250   17.8210   16.3160 C   0  0  2  0  0  0  0  0  0  0  0  0
    4.6710   19.3070   16.3940 O   0  0  0  0  0  0  0  0  0  0  0  0
    0.8960   18.0170   16.2740 C   0  0  1  0  0  0  0  0  0  0  0  0
    1.4000   17.1030   19.2110 C   0  0  0  0  0  0  0  0  0  0  0  0
    2.9730   16.4210   15.9450 C   0  0  0  0  0  0  0  0  0  0  0  0
    1.1830   16.7670   20.3650 O   0  0  0  0  0  0  0  0  0  0  0  0
    3.6460   17.5020   19.6070 O   0  0  0  0  0  0  0  0  0  0  0  0
    0.4350   18.0940   14.9390 O   0  0  0  0  0  0  0  0  0  0  0  0
    0.1290   16.9210   16.9920 C   0  0  0  0  0  0  0  0  0  0  0  0
    2.6150   15.8990   14.5500 C   0  0  0  0  0  0  0  0  0  0  0  0
    3.0070   16.8280   13.5120 O   0  0  0  0  0  0  0  0  0  0  0  0
    3.3180   16.5300   12.2030 C   0  0  0  0  0  0  0  0  0  0  0  0
    0.3340   16.9260   18.4030 O   0  0  0  0  0  0  0  0  0  0  0  0
    3.3800   15.2160   11.7300 C   0  0  0  0  0  0  0  0  0  0  0  0
    3.6050   17.6030   11.3610 C   0  0  0  0  0  0  0  0  0  0  0  0
    3.9820   17.3610   10.0440 C   0  0  0  0  0  0  0  0  0  0  0  0
    4.0610   16.0540    9.5700 C   0  0  0  0  0  0  0  0  0  0  0  0
    3.7570   14.9850   10.4110 C   0  0  0  0  0  0  0  0  0  0  0  0
    9.2180   20.1600   18.9340 H   0  0  0  0  0  0  0  0  0  0  0  0
    9.3960   22.3670   17.8930 H   0  0  0  0  0  0  0  0  0  0  0  0
    7.0250   19.1370   19.2760 H   0  0  0  0  0  0  0  0  0  0  0  0
    5.1760   22.5260   17.4990 H   0  0  0  0  0  0  0  0  0  0  0  0
    7.3730   23.5500   17.1760 H   0  0  0  0  0  0  0  0  0  0  0  0
    4.5960   19.6240   19.5730 H   0  0  0  0  0  0  0  0  0  0  0  0
    3.8370   20.8930   18.7280 H   0  0  0  0  0  0  0  0  0  0  0  0
    2.7600   18.4730   15.5210 H   0  0  0  0  0  0  0  0  0  0  0  0
    0.6690   18.9720   16.7510 H   0  0  0  0  0  0  0  0  0  0  0  0
    4.0590   16.4730   15.9920 H   0  0  0  0  0  0  0  0  0  0  0  0
    2.6580   15.7010   16.6930 H   0  0  0  0  0  0  0  0  0  0  0  0
   -0.4800   18.3870   14.9400 H   0  0  0  0  0  0  0  0  0  0  0  0
   -0.9370   17.0670   16.8140 H   0  0  0  0  0  0  0  0  0  0  0  0
    0.4000   15.9430   16.5970 H   0  0  0  0  0  0  0  0  0  0  0  0
    3.1380   14.9550   14.4070 H   0  0  0  0  0  0  0  0  0  0  0  0
    1.5420   15.7200   14.4780 H   0  0  0  0  0  0  0  0  0  0  0  0
    3.1510   14.3950   12.3580 H   0  0  0  0  0  0  0  0  0  0  0  0
    3.5450   18.5960   11.7270 H   0  0  0  0  0  0  0  0  0  0  0  0
    4.2080   18.1720    9.4000 H   0  0  0  0  0  0  0  0  0  0  0  0
    4.3490   15.8720    8.5670 H   0  0  0  0  0  0  0  0  0  0  0  0
    3.8130   13.9920   10.0440 H   0  0  0  0  0  0  0  0  0  0  0  0
  1  2  2  0  0  0  0
  1  3  1  0  0  0  0
  1 29  1  0  0  0  0
  2  6  1  0  0  0  0
  2 30  1  0  0  0  0
  3  4  2  0  0  0  0
  3 31  1  0  0  0  0
  4  5  1  0  0  0  0
  4  7  1  0  0  0  0
  5  6  2  0  0  0  0
  5 32  1  0  0  0  0
  6 33  1  0  0  0  0
  7  8  1  0  0  0  0
  7 34  1  0  0  0  0
  7 35  1  0  0  0  0
  8  9  1  0  0  0  0
  8 12  2  0  0  0  0
  9 10  1  0  0  0  0
  9 11  1  0  0  0  0
 10 14  1  0  0  0  0
 10 17  2  0  0  0  0
 11 13  1  0  0  0  0
 11 15  1  0  0  0  0
 11 36  1  0  0  0  0
 13 18  1  0  0  0  0
 13 19  1  0  0  0  0
 13 37  1  0  0  0  0
 14 16  2  0  0  0  0
 14 23  1  0  0  0  0
 15 20  1  0  0  0  0
 15 38  1  0  0  0  0
 15 39  1  0  0  0  0
 18 40  1  0  0  0  0
 19 23  1  0  0  0  0
 19 41  1  0  0  0  0
 19 42  1  0  0  0  0
 20 21  1  0  0  0  0
 20 43  1  0  0  0  0
 20 44  1  0  0  0  0
 21 22  1  0  0  0  0
 22 24  2  0  0  0  0
 22 25  1  0  0  0  0
 24 28  1  0  0  0  0
 24 45  1  0  0  0  0
 25 26  2  0  0  0  0
 25 46  1  0  0  0  0
 26 27  1  0  0  0  0
 26 47  1  0  0  0  0
 27 28  2  0  0  0  0
 27 48  1  0  0  0  0
 28 49  1  0  0  0  0
M  END
> <rseq>
1

> <mseq>
165

> <S>
-6.409321

> <rmsd_refine>
0.6049004

> <E_conf>
62.99774

> <E_score1>
-8.984468

> <E_refine>
-33.49018

> <E_score2>
-6.409321

>  <$File>
outputs/pdb_4j58_cleaned.pdb_2024_06_17__22_47_40_V2_BS398_MIN1_/SDF/sdf_db.sdf

> <Rec_index>
1

>  <PLIF_raw>
[[],[],[],[],[]]

>  <PLIF_ligidx>
[]

$$$$
165
  MOE2022           3D

 44 47  0  0  0  0  0  0  0  0999 V2000
    7.2050   20.8620   19.1000 C   0  0  0  0  0  0  0  0  0  0  0  0
    6.2490   19.8930   18.8110 C   0  0  0  0  0  0  0  0  0  0  0  0
    5.0120   20.2400   18.2520 C   0  0  0  0  0  0  0  0  0  0  0  0
    4.0190   19.2100   17.9270 C   0  0  0  0  0  0  0  0  0  0  0  0
    3.4210   19.1440   16.6630 C   0  0  0  0  0  0  0  0  0  0  0  0
    3.6110   18.3000   18.9040 C   0  0  0  0  0  0  0  0  0  0  0  0
    2.5640   17.3960   18.6890 C   0  0  0  0  0  0  0  0  0  0  0  0
    2.3940   18.2370   16.4120 C   0  0  0  0  0  0  0  0  0  0  0  0
    2.0620   16.5620   19.7790 C   0  0  0  0  0  0  0  0  0  0  0  0
    1.9760   17.3670   17.4160 C   0  0  0  0  0  0  0  0  0  0  0  0
    1.6990   18.2270   15.0680 C   0  0  0  0  0  0  0  0  0  0  0  0
    0.8690   16.0110   19.7900 N   0  0  0  0  0  0  0  0  0  0  0  0
    2.7320   16.3120   20.8820 N   0  0  0  0  0  0  0  0  0  0  0  0
    1.9230   15.5780   21.6170 N   0  5  0  0  0  0  0  0  0  0  0  0
    2.3130   17.3310   14.0910 N   0  0  0  0  0  0  0  0  0  0  0  0
    4.7570   21.6080   18.0450 C   0  0  0  0  0  0  0  0  0  0  0  0
    3.0240   17.7600   12.9950 C   0  0  0  0  0  0  0  0  0  0  0  0
    0.7890   15.3990   20.9510 N   0  0  0  0  0  0  0  0  0  0  0  0
    3.4190   16.7820   11.9740 C   0  0  0  0  0  0  0  0  0  0  0  0
    3.5410   22.0230   17.5870 O   0  0  0  0  0  0  0  0  0  0  0  0
    3.3100   18.9530   12.9140 O   0  0  0  0  0  0  0  0  0  0  0  0
    3.9690   17.2290   10.7620 C   0  0  0  0  0  0  0  0  0  0  0  0
    6.9400   22.2060   18.8490 C   0  0  0  0  0  0  0  0  0  0  0  0
    5.7110   22.5830   18.3240 C   0  0  0  0  0  0  0  0  0  0  0  0
    4.3940   16.3230    9.7970 C   0  0  0  0  0  0  0  0  0  0  0  0
    4.2650   14.9570   10.0200 C   0  0  0  0  0  0  0  0  0  0  0  0
    3.7060   14.4970   11.2080 C   0  0  0  0  0  0  0  0  0  0  0  0
    3.2840   15.3990   12.1780 C   0  0  0  0  0  0  0  0  0  0  0  0
    8.1400   20.5780   19.5090 H   0  0  0  0  0  0  0  0  0  0  0  0
    6.4660   18.8820   19.0210 H   0  0  0  0  0  0  0  0  0  0  0  0
    3.7370   19.8050   15.8970 H   0  0  0  0  0  0  0  0  0  0  0  0
    4.0720   18.3340   19.8540 H   0  0  0  0  0  0  0  0  0  0  0  0
    1.1890   16.6850   17.2210 H   0  0  0  0  0  0  0  0  0  0  0  0
    0.6660   17.9380   15.2030 H   0  0  0  0  0  0  0  0  0  0  0  0
    1.6460   19.2370   14.6830 H   0  0  0  0  0  0  0  0  0  0  0  0
    2.1070   16.3260   14.1890 H   0  0  0  0  0  0  0  0  0  0  0  0
    2.9300   21.2620   17.5190 H   0  0  0  0  0  0  0  0  0  0  0  0
    4.0700   18.2670   10.5750 H   0  0  0  0  0  0  0  0  0  0  0  0
    7.6740   22.9380   19.0610 H   0  0  0  0  0  0  0  0  0  0  0  0
    5.4980   23.6050   18.1410 H   0  0  0  0  0  0  0  0  0  0  0  0
    4.8150   16.6740    8.8900 H   0  0  0  0  0  0  0  0  0  0  0  0
    4.5890   14.2660    9.2840 H   0  0  0  0  0  0  0  0  0  0  0  0
    3.6040   13.4550   11.3730 H   0  0  0  0  0  0  0  0  0  0  0  0
    2.8700   15.0230   13.0770 H   0  0  0  0  0  0  0  0  0  0  0  0
  1  2  1  0  0  0  0
  1 23  2  0  0  0  0
  1 29  1  0  0  0  0
  2  3  2  0  0  0  0
  2 30  1  0  0  0  0
  3  4  1  0  0  0  0
  3 16  1  0  0  0  0
  4  5  1  0  0  0  0
  4  6  2  0  0  0  0
  5  8  2  0  0  0  0
  5 31  1  0  0  0  0
  6  7  1  0  0  0  0
  6 32  1  0  0  0  0
  7  9  1  0  0  0  0
  7 10  2  0  0  0  0
  8 10  1  0  0  0  0
  8 11  1  0  0  0  0
  9 12  1  0  0  0  0
  9 13  2  0  0  0  0
 10 33  1  0  0  0  0
 11 15  1  0  0  0  0
 11 34  1  0  0  0  0
 11 35  1  0  0  0  0
 12 18  2  0  0  0  0
 13 14  1  0  0  0  0
 14 18  1  0  0  0  0
 15 17  1  0  0  0  0
 15 36  1  0  0  0  0
 16 20  1  0  0  0  0
 16 24  2  0  0  0  0
 17 19  1  0  0  0  0
 17 21  2  0  0  0  0
 19 22  1  0  0  0  0
 19 28  2  0  0  0  0
 20 37  1  0  0  0  0
 22 25  2  0  0  0  0
 22 38  1  0  0  0  0
 23 24  1  0  0  0  0
 23 39  1  0  0  0  0
 24 40  1  0  0  0  0
 25 26  1  0  0  0  0
 25 41  1  0  0  0  0
 26 27  2  0  0  0  0
 26 42  1  0  0  0  0
 27 28  1  0  0  0  0
 27 43  1  0  0  0  0
 28 44  1  0  0  0  0
M  CHG  1  14  -1
M  END
> <rseq>
1

> <mseq>
166

> <S>
-6.109402

> <rmsd_refine>
0.7683832

> <E_conf>
-55.33179

> <E_score1>
-11.0569

> <E_refine>
-34.95745

> <E_score2>
-6.109402

>  <$File>
outputs/pdb_4j58_cleaned.pdb_2024_06_17__22_47_40_V2_BS398_MIN1_/SDF/sdf_db.sdf

> <Rec_index>
1

>  <PLIF_raw>
[[18,18,14,14,18,18,4,6,7,10,8,5],[1206,1212,1206,1212,1206,1212,954,954,954,954,954,954],[81,81,81,81,81,81,62,62,62,62,62,62],[2,2,7,7,7,7,10,10,10,10,10,10],[3.3,1.1,1.980541339,1.613320648,3.15508885,4.055883784,0.7,0.7,0.7,0.7,0.7,0.7]]

> <FP:PLIF>
21 17 18 24 25

>  <PLIF_ligidx>
[[4,6,7,10,8,5],[18,18],18,[14,14,18,18],18]

$$$$
166
  MOE2022           3D

 51 52  0  0  0  0  0  0  0  0999 V2000
    8.6250   21.0640   18.4000 C   0  0  0  0  0  0  0  0  0  0  0  0
    8.4130   22.2510   17.7090 C   0  0  0  0  0  0  0  0  0  0  0  0
    7.5550   20.2210   18.6790 C   0  0  0  0  0  0  0  0  0  0  0  0
    6.2630   20.5630   18.2770 C   0  0  0  0  0  0  0  0  0  0  0  0
    6.0550   21.7690   17.6080 C   0  0  0  0  0  0  0  0  0  0  0  0
    5.1030   19.6310   18.5860 C   0  0  0  0  0  0  0  0  0  0  0  0
    4.2660   19.1540   17.3960 C   0  0  0  0  0  0  0  0  0  0  0  0
    3.1350   18.2990   17.5220 N   0  0  0  0  0  0  0  0  0  0  0  0
    7.1270   22.6080   17.3200 C   0  0  0  0  0  0  0  0  0  0  0  0
    2.8220   17.4830   18.6570 C   0  0  0  0  0  0  0  0  0  0  0  0
    2.1600   18.3860   16.4010 C   0  0  0  0  0  0  0  0  0  0  0  0
    1.7420   16.4990   18.5990 C   0  0  0  0  0  0  0  0  0  0  0  0
    4.5440   19.5480   16.2770 O   0  0  0  0  0  0  0  0  0  0  0  0
    1.2670   15.7910   19.6570 C   0  0  0  0  0  0  0  0  0  0  0  0
    3.4960   17.6200   19.6690 O   0  0  0  0  0  0  0  0  0  0  0  0
    1.7420   15.9170   20.9170 O   0  0  0  0  0  0  0  0  0  0  0  0
    2.4730   17.6040   15.1310 C   0  0  0  0  0  0  0  0  0  0  0  0
    2.3890   18.2660   13.9060 C   0  0  0  0  0  0  0  0  0  0  0  0
    2.7750   16.2410   15.1400 C   0  0  0  0  0  0  0  0  0  0  0  0
    2.5520   17.5730   12.7120 C   0  0  0  0  0  0  0  0  0  0  0  0
    2.7990   16.2030   12.7190 C   0  0  0  0  0  0  0  0  0  0  0  0
    2.9330   15.5460   13.9410 C   0  0  0  0  0  0  0  0  0  0  0  0
    2.8610   15.4410   11.4050 C   0  0  0  0  0  0  0  0  0  0  0  0
    4.2140   15.1810   10.8870 N   0  0  0  0  0  0  0  0  0  0  0  0
    4.9070   16.1810   10.2260 C   0  0  0  0  0  0  0  0  0  0  0  0
    4.4820   17.3320   10.1230 O   0  0  0  0  0  0  0  0  0  0  0  0
    6.1230   15.8560    9.6990 N   0  0  0  0  0  0  0  0  0  0  0  0
    4.6840   13.7890   10.8900 C   0  0  0  0  0  0  0  0  0  0  0  0
    9.6020   20.8000   18.7110 H   0  0  0  0  0  0  0  0  0  0  0  0
    9.2310   22.8810   17.4800 H   0  0  0  0  0  0  0  0  0  0  0  0
    7.7310   19.3170   19.2010 H   0  0  0  0  0  0  0  0  0  0  0  0
    5.0770   22.0480   17.3090 H   0  0  0  0  0  0  0  0  0  0  0  0
    5.5000   18.7830   19.1140 H   0  0  0  0  0  0  0  0  0  0  0  0
    4.4570   20.1180   19.2980 H   0  0  0  0  0  0  0  0  0  0  0  0
    6.9640   23.5180   16.8010 H   0  0  0  0  0  0  0  0  0  0  0  0
    1.1600   18.1470   16.7290 H   0  0  0  0  0  0  0  0  0  0  0  0
    2.0490   19.4300   16.1380 H   0  0  0  0  0  0  0  0  0  0  0  0
    1.3040   16.3190   17.6550 H   0  0  0  0  0  0  0  0  0  0  0  0
    0.4830   15.0800   19.5760 H   0  0  0  0  0  0  0  0  0  0  0  0
    2.4800   16.5630   20.9380 H   0  0  0  0  0  0  0  0  0  0  0  0
    2.1790   19.3040   13.8770 H   0  0  0  0  0  0  0  0  0  0  0  0
    2.8680   15.7210   16.0570 H   0  0  0  0  0  0  0  0  0  0  0  0
    2.4650   18.0920   11.7920 H   0  0  0  0  0  0  0  0  0  0  0  0
    3.1360   14.5060   13.9580 H   0  0  0  0  0  0  0  0  0  0  0  0
    2.3230   14.5100   11.5200 H   0  0  0  0  0  0  0  0  0  0  0  0
    2.2940   15.9760   10.6550 H   0  0  0  0  0  0  0  0  0  0  0  0
    6.6060   16.5430    9.1020 H   0  0  0  0  0  0  0  0  0  0  0  0
    6.4410   14.8760    9.7070 H   0  0  0  0  0  0  0  0  0  0  0  0
    3.9430   13.1130   11.2930 H   0  0  0  0  0  0  0  0  0  0  0  0
    4.9050   13.4440    9.8890 H   0  0  0  0  0  0  0  0  0  0  0  0
    5.5790   13.6780   11.4850 H   0  0  0  0  0  0  0  0  0  0  0  0
  1  2  1  0  0  0  0
  1  3  2  0  0  0  0
  1 29  1  0  0  0  0
  2  9  2  0  0  0  0
  2 30  1  0  0  0  0
  3  4  1  0  0  0  0
  3 31  1  0  0  0  0
  4  5  2  0  0  0  0
  4  6  1  0  0  0  0
  5  9  1  0  0  0  0
  5 32  1  0  0  0  0
  6  7  1  0  0  0  0
  6 33  1  0  0  0  0
  6 34  1  0  0  0  0
  7  8  1  0  0  0  0
  7 13  2  0  0  0  0
  8 10  1  0  0  0  0
  8 11  1  0  0  0  0
  9 35  1  0  0  0  0
 10 12  1  0  0  0  0
 10 15  2  0  0  0  0
 11 17  1  0  0  0  0
 11 36  1  0  0  0  0
 11 37  1  0  0  0  0
 12 14  2  0  0  0  0
 12 38  1  0  0  0  0
 14 16  1  0  0  0  0
 14 39  1  0  0  0  0
 16 40  1  0  0  0  0
 17 18  2  0  0  0  0
 17 19  1  0  0  0  0
 18 20  1  0  0  0  0
 18 41  1  0  0  0  0
 19 22  2  0  0  0  0
 19 42  1  0  0  0  0
 20 21  2  0  0  0  0
 20 43  1  0  0  0  0
 21 22  1  0  0  0  0
 21 23  1  0  0  0  0
 22 44  1  0  0  0  0
 23 24  1  0  0  0  0
 23 45  1  0  0  0  0
 23 46  1  0  0  0  0
 24 25  1  0  0  0  0
 24 28  1  0  0  0  0
 25 26  2  0  0  0  0
 25 27  1  0  0  0  0
 27 47  1  0  0  0  0
 27 48  1  0  0  0  0
 28 49  1  0  0  0  0
 28 50  1  0  0  0  0
 28 51  1  0  0  0  0
M  END
> <rseq>
1

> <mseq>
167

> <S>
-6.837183

> <rmsd_refine>
0.835713

> <E_conf>
-137.0496

> <E_score1>
-10.25566

> <E_refine>
-38.42867

> <E_score2>
-6.837183

>  <$File>
outputs/pdb_4j58_cleaned.pdb_2024_06_17__22_47_40_V2_BS398_MIN1_/SDF/sdf_db.sdf

> <Rec_index>
1

>  <PLIF_raw>
[27,2222,148,3,0.6]

> <FP:PLIF>
39

>  <PLIF_ligidx>
27

$$$$
167
  MOE2022           3D

 52 53  0  0  1  0  0  0  0  0999 V2000
    6.3110   20.9910   18.5670 C   0  0  0  0  0  0  0  0  0  0  0  0
    5.6720   22.0610   17.9500 C   0  0  0  0  0  0  0  0  0  0  0  0
    5.6340   19.7910   18.7550 C   0  0  0  0  0  0  0  0  0  0  0  0
    4.3540   21.9310   17.5220 C   0  0  0  0  0  0  0  0  0  0  0  0
    4.3080   19.6430   18.3250 C   0  0  0  0  0  0  0  0  0  0  0  0
    3.6750   20.7320   17.7090 C   0  0  0  0  0  0  0  0  0  0  0  0
    3.5900   18.3860   18.5550 C   0  0  0  0  0  0  0  0  0  0  0  0
    2.7920   17.8370   17.5560 N   0  0  0  0  0  0  0  0  0  0  0  0
    3.3070   17.8700   16.1700 C   0  0  0  0  0  0  0  0  0  0  0  0
    3.6880   17.7870   19.6240 O   0  0  0  0  0  0  0  0  0  0  0  0
    1.8410   16.7260   17.8560 C   0  0  1  0  0  0  0  0  0  0  0  0
    1.0450   17.0150   19.0490 N   0  0  0  0  0  0  0  0  0  0  0  0
    0.8880   16.4200   16.6770 C   0  0  0  0  0  0  0  0  0  0  0  0
    1.5540   16.3160   15.3630 N   0  0  0  0  0  0  0  0  0  0  0  0
    0.5390   16.0040   14.3340 C   0  0  0  0  0  0  0  0  0  0  0  0
    1.0330   15.9570   12.8730 C   0  0  0  0  0  0  0  0  0  0  0  0
    2.1850   14.9940   12.5830 C   0  0  0  0  0  0  0  0  0  0  0  0
    0.7970   16.0880   20.0230 C   0  0  0  0  0  0  0  0  0  0  0  0
    2.9830   15.3390   11.5630 N   0  0  0  0  0  0  0  0  0  0  0  0
    2.2480   17.5830   15.1000 C   0  0  0  0  0  0  0  0  0  0  0  0
    2.3110   13.9550   13.2280 O   0  0  0  0  0  0  0  0  0  0  0  0
    4.1260   14.5740   11.0570 C   0  0  2  0  0  0  0  0  0  0  0  0
    0.9680   14.8780   19.8880 O   0  0  0  0  0  0  0  0  0  0  0  0
    0.3200   16.6040   21.1850 N   0  0  0  0  0  0  0  0  0  0  0  0
    5.2000   15.4980   10.4400 C   0  0  0  0  0  0  0  0  0  0  0  0
    3.6280   13.5510   10.0300 C   0  0  0  0  0  0  0  0  0  0  0  0
    4.8940   16.6890   10.1990 O   0  5  0  0  0  0  0  0  0  0  0  0
    6.3420   15.0190   10.2630 O   0  0  0  0  0  0  0  0  0  0  0  0
    7.3140   21.0890   18.8940 H   0  0  0  0  0  0  0  0  0  0  0  0
    6.1890   22.9760   17.8070 H   0  0  0  0  0  0  0  0  0  0  0  0
    6.1300   18.9860   19.2280 H   0  0  0  0  0  0  0  0  0  0  0  0
    3.8660   22.7480   17.0560 H   0  0  0  0  0  0  0  0  0  0  0  0
    2.6670   20.6460   17.3910 H   0  0  0  0  0  0  0  0  0  0  0  0
    3.7760   18.8150   15.9400 H   0  0  0  0  0  0  0  0  0  0  0  0
    4.0910   17.1320   16.0740 H   0  0  0  0  0  0  0  0  0  0  0  0
    2.4300   15.8360   18.0370 H   0  0  0  0  0  0  0  0  0  0  0  0
    0.9150   18.0100   19.2810 H   0  0  0  0  0  0  0  0  0  0  0  0
    0.3530   15.5040   16.8850 H   0  0  0  0  0  0  0  0  0  0  0  0
    0.1370   17.1980   16.6290 H   0  0  0  0  0  0  0  0  0  0  0  0
    0.1010   15.0440   14.5770 H   0  0  0  0  0  0  0  0  0  0  0  0
   -0.2690   16.7210   14.4010 H   0  0  0  0  0  0  0  0  0  0  0  0
    0.1940   15.6650   12.2410 H   0  0  0  0  0  0  0  0  0  0  0  0
    1.3180   16.9610   12.5610 H   0  0  0  0  0  0  0  0  0  0  0  0
    2.8110   16.2160   11.0920 H   0  0  0  0  0  0  0  0  0  0  0  0
    1.5320   18.3940   15.0580 H   0  0  0  0  0  0  0  0  0  0  0  0
    2.7420   17.5450   14.1390 H   0  0  0  0  0  0  0  0  0  0  0  0
    4.5870   14.0340   11.8830 H   0  0  0  0  0  0  0  0  0  0  0  0
    0.3770   16.0420   22.0420 H   0  0  0  0  0  0  0  0  0  0  0  0
    0.2460   17.6270   21.2810 H   0  0  0  0  0  0  0  0  0  0  0  0
    2.9000   12.8860   10.4960 H   0  0  0  0  0  0  0  0  0  0  0  0
    3.1640   14.0660    9.1880 H   0  0  0  0  0  0  0  0  0  0  0  0
    4.4690   12.9570    9.6700 H   0  0  0  0  0  0  0  0  0  0  0  0
  1  2  2  0  0  0  0
  1  3  1  0  0  0  0
  1 29  1  0  0  0  0
  2  4  1  0  0  0  0
  2 30  1  0  0  0  0
  3  5  2  0  0  0  0
  3 31  1  0  0  0  0
  4  6  2  0  0  0  0
  4 32  1  0  0  0  0
  5  6  1  0  0  0  0
  5  7  1  0  0  0  0
  6 33  1  0  0  0  0
  7  8  1  0  0  0  0
  7 10  2  0  0  0  0
  8  9  1  0  0  0  0
  8 11  1  0  0  0  0
  9 20  1  0  0  0  0
  9 34  1  0  0  0  0
  9 35  1  0  0  0  0
 11 12  1  0  0  0  0
 11 13  1  0  0  0  0
 11 36  1  0  0  0  0
 12 18  1  0  0  0  0
 12 37  1  0  0  0  0
 13 14  1  0  0  0  0
 13 38  1  0  0  0  0
 13 39  1  0  0  0  0
 14 15  1  0  0  0  0
 14 20  1  0  0  0  0
 15 16  1  0  0  0  0
 15 40  1  0  0  0  0
 15 41  1  0  0  0  0
 16 17  1  0  0  0  0
 16 42  1  0  0  0  0
 16 43  1  0  0  0  0
 17 19  1  0  0  0  0
 17 21  2  0  0  0  0
 18 23  2  0  0  0  0
 18 24  1  0  0  0  0
 19 22  1  0  0  0  0
 19 44  1  0  0  0  0
 20 45  1  0  0  0  0
 20 46  1  0  0  0  0
 22 25  1  0  0  0  0
 22 26  1  0  0  0  0
 22 47  1  0  0  0  0
 24 48  1  0  0  0  0
 24 49  1  0  0  0  0
 25 27  1  0  0  0  0
 25 28  2  0  0  0  0
 26 50  1  0  0  0  0
 26 51  1  0  0  0  0
 26 52  1  0  0  0  0
M  CHG  1  27  -1
M  END
> <rseq>
1

> <mseq>
168

> <S>
-6.230568

> <rmsd_refine>
1.692216

> <E_conf>
-169.0346

> <E_score1>
-9.99463

> <E_refine>
-29.63626

> <E_score2>
-6.230568

>  <$File>
outputs/pdb_4j58_cleaned.pdb_2024_06_17__22_47_40_V2_BS398_MIN1_/SDF/sdf_db.sdf

> <Rec_index>
1

>  <PLIF_raw>
[[23,27,27,27,28],[1212,823,823,829,823],[81,54,54,54,54],[2,2,7,7,7],[4.8,1.6,4.312826161,1.108178176,2.753010813]]

> <FP:PLIF>
6 19 1 16 17 18

>  <PLIF_ligidx>
[27,27,[27,27,28],27,23,23]

$$$$
168
  MOE2022           3D

 51 53  0  0  1  0  0  0  0  0999 V2000
    2.9040   17.1120   19.1200 O   0  0  0  0  0  0  0  0  0  0  0  0
    1.9700   17.4250   18.3820 C   0  0  0  0  0  0  0  0  0  0  0  0
    2.1550   18.4630   17.5000 N   0  0  0  0  0  0  0  0  0  0  0  0
    0.6830   16.7210   18.3750 C   0  0  0  0  0  0  0  0  0  0  0  0
   -0.3980   17.1680   17.5950 C   0  0  0  0  0  0  0  0  0  0  0  0
   -1.5940   16.4600   17.5700 C   0  0  0  0  0  0  0  0  0  0  0  0
    0.5200   15.5520   19.1330 C   0  0  0  0  0  0  0  0  0  0  0  0
    3.4510   18.7540   16.8950 C   0  0  1  0  0  0  0  0  0  0  0  0
   -0.6750   14.8430   19.0960 C   0  0  0  0  0  0  0  0  0  0  0  0
   -1.7330   15.2960   18.3160 C   0  0  0  0  0  0  0  0  0  0  0  0
    3.3490   18.5980   15.3780 C   0  0  0  0  0  0  0  0  0  0  0  0
    3.3070   17.3160   14.8080 C   0  0  0  0  0  0  0  0  0  0  0  0
    3.3920   16.2020   15.6010 O   0  0  0  0  0  0  0  0  0  0  0  0
    3.1710   17.1260   13.4360 C   0  0  0  0  0  0  0  0  0  0  0  0
    3.0690   18.2440   12.6130 C   0  0  0  0  0  0  0  0  0  0  0  0
    4.0310   20.0880   17.4010 C   0  0  0  0  0  0  0  0  0  0  0  0
    2.8940   18.1140   11.2530 O   0  0  0  0  0  0  0  0  0  0  0  0
    3.2410   19.7020   14.5240 C   0  0  0  0  0  0  0  0  0  0  0  0
    3.1040   19.5300   13.1490 C   0  0  0  0  0  0  0  0  0  0  0  0
    5.3490   20.3050   16.9300 O   0  0  0  0  0  0  0  0  0  0  0  0
    3.8710   17.5120   10.3600 C   0  0  0  0  0  0  0  0  0  0  0  0
    3.9090   15.9970   10.3990 C   0  0  0  0  0  0  0  0  0  0  0  0
    5.1230   15.3260   10.2530 C   0  0  0  0  0  0  0  0  0  0  0  0
    5.1710   13.9330   10.2820 C   0  0  0  0  0  0  0  0  0  0  0  0
    6.4830   13.1990   10.1150 C   0  0  0  0  0  0  0  0  0  0  0  0
    3.9940   13.2090   10.4510 C   0  0  0  0  0  0  0  0  0  0  0  0
    2.7350   15.2600   10.5510 C   0  0  0  0  0  0  0  0  0  0  0  0
    2.7780   13.8710   10.5850 C   0  0  0  0  0  0  0  0  0  0  0  0
    1.3420   18.7710   16.9480 H   0  0  0  0  0  0  0  0  0  0  0  0
   -0.3170   18.0490   17.0150 H   0  0  0  0  0  0  0  0  0  0  0  0
   -2.4010   16.8070   16.9780 H   0  0  0  0  0  0  0  0  0  0  0  0
    1.3200   15.1920   19.7280 H   0  0  0  0  0  0  0  0  0  0  0  0
    4.1520   18.0070   17.2250 H   0  0  0  0  0  0  0  0  0  0  0  0
   -0.7840   13.9500   19.6530 H   0  0  0  0  0  0  0  0  0  0  0  0
   -2.6430   14.7540   18.2900 H   0  0  0  0  0  0  0  0  0  0  0  0
    3.2620   15.3910   15.0710 H   0  0  0  0  0  0  0  0  0  0  0  0
    3.1350   16.1480   13.0340 H   0  0  0  0  0  0  0  0  0  0  0  0
    3.3960   20.9210   17.1010 H   0  0  0  0  0  0  0  0  0  0  0  0
    4.0590   20.0710   18.4900 H   0  0  0  0  0  0  0  0  0  0  0  0
    3.2550   20.6860   14.9140 H   0  0  0  0  0  0  0  0  0  0  0  0
    3.0180   20.3720   12.5120 H   0  0  0  0  0  0  0  0  0  0  0  0
    5.8970   19.5640   17.2030 H   0  0  0  0  0  0  0  0  0  0  0  0
    3.6410   17.8350    9.3540 H   0  0  0  0  0  0  0  0  0  0  0  0
    4.8420   17.9270   10.5840 H   0  0  0  0  0  0  0  0  0  0  0  0
    6.0170   15.8780   10.1140 H   0  0  0  0  0  0  0  0  0  0  0  0
    6.5870   12.4260   10.8770 H   0  0  0  0  0  0  0  0  0  0  0  0
    6.5260   12.7220    9.1350 H   0  0  0  0  0  0  0  0  0  0  0  0
    7.3290   13.8780   10.2030 H   0  0  0  0  0  0  0  0  0  0  0  0
    4.0210   12.1510   10.4760 H   0  0  0  0  0  0  0  0  0  0  0  0
    1.8030   15.7560   10.6470 H   0  0  0  0  0  0  0  0  0  0  0  0
    1.8850   13.3150   10.7100 H   0  0  0  0  0  0  0  0  0  0  0  0
  1  2  2  0  0  0  0
  2  3  1  0  0  0  0
  2  4  1  0  0  0  0
  3  8  1  0  0  0  0
  3 29  1  0  0  0  0
  4  5  2  0  0  0  0
  4  7  1  0  0  0  0
  5  6  1  0  0  0  0
  5 30  1  0  0  0  0
  6 10  2  0  0  0  0
  6 31  1  0  0  0  0
  7  9  2  0  0  0  0
  7 32  1  0  0  0  0
  8 11  1  0  0  0  0
  8 16  1  0  0  0  0
  8 33  1  0  0  0  0
  9 10  1  0  0  0  0
  9 34  1  0  0  0  0
 10 35  1  0  0  0  0
 11 12  1  0  0  0  0
 11 18  2  0  0  0  0
 12 13  1  0  0  0  0
 12 14  2  0  0  0  0
 13 36  1  0  0  0  0
 14 15  1  0  0  0  0
 14 37  1  0  0  0  0
 15 17  1  0  0  0  0
 15 19  2  0  0  0  0
 16 20  1  0  0  0  0
 16 38  1  0  0  0  0
 16 39  1  0  0  0  0
 17 21  1  0  0  0  0
 18 19  1  0  0  0  0
 18 40  1  0  0  0  0
 19 41  1  0  0  0  0
 20 42  1  0  0  0  0
 21 22  1  0  0  0  0
 21 43  1  0  0  0  0
 21 44  1  0  0  0  0
 22 23  1  0  0  0  0
 22 27  2  0  0  0  0
 23 24  2  0  0  0  0
 23 45  1  0  0  0  0
 24 25  1  0  0  0  0
 24 26  1  0  0  0  0
 25 46  1  0  0  0  0
 25 47  1  0  0  0  0
 25 48  1  0  0  0  0
 26 28  2  0  0  0  0
 26 49  1  0  0  0  0
 27 28  1  0  0  0  0
 27 50  1  0  0  0  0
 28 51  1  0  0  0  0
M  END
> <rseq>
1

> <mseq>
169

> <S>
-5.827741

> <rmsd_refine>
1.648349

> <E_conf>
-4.157609

> <E_score1>
-10.7975

> <E_refine>
-28.6614

> <E_score2>
-5.827741

>  <$File>
outputs/pdb_4j58_cleaned.pdb_2024_06_17__22_47_40_V2_BS398_MIN1_/SDF/sdf_db.sdf

> <Rec_index>
1

>  <PLIF_raw>
[[],[],[],[],[]]

>  <PLIF_ligidx>
[]

$$$$
169
  MOE2022           3D

 49 50  0  0  1  0  0  0  0  0999 V2000
    8.0480   21.5500   18.0290 C   0  0  0  0  0  0  0  0  0  0  0  0
    7.5370   22.8410   17.9630 C   0  0  0  0  0  0  0  0  0  0  0  0
    7.2070   20.4860   18.3350 C   0  0  0  0  0  0  0  0  0  0  0  0
    5.8510   20.7070   18.5790 C   0  0  0  0  0  0  0  0  0  0  0  0
    5.3490   22.0070   18.5310 C   0  0  0  0  0  0  0  0  0  0  0  0
    4.9280   19.5430   18.8860 C   0  0  0  0  0  0  0  0  0  0  0  0
    3.8390   19.2760   17.8430 C   0  0  0  0  0  0  0  0  0  0  0  0
    2.7410   18.3890   18.0480 N   0  0  0  0  0  0  0  0  0  0  0  0
    6.1900   23.0720   18.2200 C   0  0  0  0  0  0  0  0  0  0  0  0
    2.5910   17.5330   19.1760 C   0  0  0  0  0  0  0  0  0  0  0  0
    1.7490   18.3090   16.9360 C   0  0  0  0  0  0  0  0  0  0  0  0
    1.2740   17.0610   19.5920 C   0  0  0  0  0  0  0  0  0  0  0  0
    3.9020   19.8560   16.7730 O   0  0  0  0  0  0  0  0  0  0  0  0
    1.0280   16.1700   20.5870 C   0  0  0  0  0  0  0  0  0  0  0  0
    3.6030   17.2160   19.7840 O   0  0  0  0  0  0  0  0  0  0  0  0
    1.9990   15.5880   21.3240 O   0  0  0  0  0  0  0  0  0  0  0  0
    2.2710   17.5610   15.7340 C   0  0  0  0  0  0  0  0  0  0  0  0
    2.2770   18.0130   14.4700 C   0  0  0  0  0  0  0  0  0  0  0  0
    2.8610   16.2500   15.7710 C   0  0  0  0  0  0  0  0  0  0  0  0
    2.9740   17.0230   13.5530 C   0  0  1  0  0  0  0  0  0  0  0  0
    3.2490   15.8980   14.5390 C   0  0  0  0  0  0  0  0  0  0  0  0
    2.2020   16.5770   12.3030 C   0  0  0  0  0  0  0  0  0  0  0  0
    3.0570   15.6760   11.4170 C   0  0  0  0  0  0  0  0  0  0  0  0
    4.1720   16.3030   10.7050 C   0  0  0  0  0  0  0  0  0  0  0  0
    4.2080   17.5600   10.5840 O   0  5  0  0  0  0  0  0  0  0  0  0
    5.1420   15.6250   10.2600 O   0  0  0  0  0  0  0  0  0  0  0  0
    2.7590   14.3450   11.3820 C   0  0  0  0  0  0  0  0  0  0  0  0
    3.4610   13.4240   10.6330 N   0  0  0  0  0  0  0  0  0  0  0  0
    9.0760   21.3760   17.8430 H   0  0  0  0  0  0  0  0  0  0  0  0
    8.1750   23.6470   17.7140 H   0  0  0  0  0  0  0  0  0  0  0  0
    7.6050   19.5050   18.3760 H   0  0  0  0  0  0  0  0  0  0  0  0
    4.3210   22.1860   18.7190 H   0  0  0  0  0  0  0  0  0  0  0  0
    5.5310   18.6650   19.0030 H   0  0  0  0  0  0  0  0  0  0  0  0
    4.5140   19.6870   19.8660 H   0  0  0  0  0  0  0  0  0  0  0  0
    5.8030   24.0560   18.1720 H   0  0  0  0  0  0  0  0  0  0  0  0
    0.8180   17.8490   17.2140 H   0  0  0  0  0  0  0  0  0  0  0  0
    1.4580   19.3090   16.6390 H   0  0  0  0  0  0  0  0  0  0  0  0
    0.4430   17.4700   19.0900 H   0  0  0  0  0  0  0  0  0  0  0  0
    0.0520   15.8640   20.8660 H   0  0  0  0  0  0  0  0  0  0  0  0
    2.8830   15.8990   21.0330 H   0  0  0  0  0  0  0  0  0  0  0  0
    1.9050   18.9540   14.1550 H   0  0  0  0  0  0  0  0  0  0  0  0
    2.9690   15.6570   16.6410 H   0  0  0  0  0  0  0  0  0  0  0  0
    3.9030   17.4780   13.2510 H   0  0  0  0  0  0  0  0  0  0  0  0
    3.7040   14.9770   14.2800 H   0  0  0  0  0  0  0  0  0  0  0  0
    1.2920   16.0730   12.5980 H   0  0  0  0  0  0  0  0  0  0  0  0
    1.8840   17.4440   11.7400 H   0  0  0  0  0  0  0  0  0  0  0  0
    1.9600   13.9220   11.9360 H   0  0  0  0  0  0  0  0  0  0  0  0
    4.3660   13.7370   10.2400 H   0  0  0  0  0  0  0  0  0  0  0  0
    3.3570   12.4250   10.8600 H   0  0  0  0  0  0  0  0  0  0  0  0
  1  2  2  0  0  0  0
  1  3  1  0  0  0  0
  1 29  1  0  0  0  0
  2  9  1  0  0  0  0
  2 30  1  0  0  0  0
  3  4  2  0  0  0  0
  3 31  1  0  0  0  0
  4  5  1  0  0  0  0
  4  6  1  0  0  0  0
  5  9  2  0  0  0  0
  5 32  1  0  0  0  0
  6  7  1  0  0  0  0
  6 33  1  0  0  0  0
  6 34  1  0  0  0  0
  7  8  1  0  0  0  0
  7 13  2  0  0  0  0
  8 10  1  0  0  0  0
  8 11  1  0  0  0  0
  9 35  1  0  0  0  0
 10 12  1  0  0  0  0
 10 15  2  0  0  0  0
 11 17  1  0  0  0  0
 11 36  1  0  0  0  0
 11 37  1  0  0  0  0
 12 14  2  0  0  0  0
 12 38  1  0  0  0  0
 14 16  1  0  0  0  0
 14 39  1  0  0  0  0
 16 40  1  0  0  0  0
 17 18  2  0  0  0  0
 17 19  1  0  0  0  0
 18 20  1  0  0  0  0
 18 41  1  0  0  0  0
 19 21  2  0  0  0  0
 19 42  1  0  0  0  0
 20 21  1  0  0  0  0
 20 22  1  0  0  0  0
 20 43  1  0  0  0  0
 21 44  1  0  0  0  0
 22 23  1  0  0  0  0
 22 45  1  0  0  0  0
 22 46  1  0  0  0  0
 23 24  1  0  0  0  0
 23 27  2  0  0  0  0
 24 25  1  0  0  0  0
 24 26  2  0  0  0  0
 27 28  1  0  0  0  0
 27 47  1  0  0  0  0
 28 48  1  0  0  0  0
 28 49  1  0  0  0  0
M  CHG  1  25  -1
M  END
> <rseq>
1

> <mseq>
170

> <S>
-6.34703

> <rmsd_refine>
0.9904056

> <E_conf>
-119.1109

> <E_score1>
-10.43601

> <E_refine>
-33.67241

> <E_score2>
-6.34703

>  <$File>
outputs/pdb_4j58_cleaned.pdb_2024_06_17__22_47_40_V2_BS398_MIN1_/SDF/sdf_db.sdf

> <Rec_index>
1

>  <PLIF_raw>
[[26,25,25,26],[823,823,829,823],[54,54,54,54],[2,7,7,7],[1.2,3.638002791,2.121310256,3.179961226]]

> <FP:PLIF>
6 1 16

>  <PLIF_ligidx>
[26,[25,25,26],25]

$$$$
170
  MOE2022           3D

 51 53  0  0  1  0  0  0  0  0999 V2000
    7.9490   20.3900   18.4220 C   0  0  0  0  0  0  0  0  0  0  0  0
    6.9940   19.9850   19.3470 C   0  0  0  0  0  0  0  0  0  0  0  0
    7.5530   20.8180   17.1600 C   0  0  0  0  0  0  0  0  0  0  0  0
    6.2020   20.8410   16.8240 C   0  0  0  0  0  0  0  0  0  0  0  0
    5.6440   20.0040   19.0110 C   0  0  0  0  0  0  0  0  0  0  0  0
    5.2390   20.4320   17.7460 C   0  0  0  0  0  0  0  0  0  0  0  0
    3.7670   20.4620   17.3780 C   0  0  0  0  0  0  0  0  0  0  0  0
    3.2980   19.2510   16.6820 N   0  0  0  0  0  0  0  0  0  0  0  0
    2.9830   18.1340   17.3750 C   0  0  0  0  0  0  0  0  0  0  0  0
    3.0820   19.3670   15.2380 C   0  0  0  0  0  0  0  0  0  0  0  0
    2.4880   16.8610   16.6520 C   0  0  2  0  0  0  0  0  0  0  0  0
    3.1210   18.0590   18.5950 O   0  0  0  0  0  0  0  0  0  0  0  0
    2.1770   17.0050   15.1500 C   0  0  1  0  0  0  0  0  0  0  0  0
    1.3150   16.3050   17.3610 N   0  3  0  0  0  0  0  0  0  0  0  0
    3.1240   18.0250   14.5100 C   0  0  0  0  0  0  0  0  0  0  0  0
    2.2770   15.6180   14.4750 C   0  0  0  0  0  0  0  0  0  0  0  0
    1.8440   15.5730   13.0750 N   0  0  0  0  0  0  0  0  0  0  0  0
    2.8180   15.6400   12.0810 C   0  0  0  0  0  0  0  0  0  0  0  0
    0.4890   15.4620   12.7570 C   0  0  0  0  0  0  0  0  0  0  0  0
   -0.3430   15.4260   13.6820 O   0  0  0  0  0  0  0  0  0  0  0  0
    0.1590   15.3970   11.3570 C   0  0  0  0  0  0  0  0  0  0  0  0
   -1.1610   15.2630   11.0070 O   0  0  0  0  0  0  0  0  0  0  0  0
    2.4810   15.6000   10.7560 C   0  0  0  0  0  0  0  0  0  0  0  0
    1.1120   15.4640   10.3850 C   0  0  0  0  0  0  0  0  0  0  0  0
    3.5470   15.6830    9.6750 C   0  0  0  0  0  0  0  0  0  0  0  0
    4.7620   16.5020   10.0570 C   0  0  0  0  0  0  0  0  0  0  0  0
    4.5820   17.7000   10.3680 O   0  5  0  0  0  0  0  0  0  0  0  0
    5.8770   15.9340   10.0680 O   0  0  0  0  0  0  0  0  0  0  0  0
    8.9770   20.3750   18.6800 H   0  0  0  0  0  0  0  0  0  0  0  0
    7.2960   19.6630   20.3090 H   0  0  0  0  0  0  0  0  0  0  0  0
    8.2810   21.1290   16.4560 H   0  0  0  0  0  0  0  0  0  0  0  0
    5.9060   21.1740   15.8630 H   0  0  0  0  0  0  0  0  0  0  0  0
    4.9230   19.6930   19.7210 H   0  0  0  0  0  0  0  0  0  0  0  0
    3.1740   20.6270   18.2660 H   0  0  0  0  0  0  0  0  0  0  0  0
    3.5720   21.3340   16.7690 H   0  0  0  0  0  0  0  0  0  0  0  0
    2.1280   19.8450   15.0580 H   0  0  0  0  0  0  0  0  0  0  0  0
    3.8250   20.0240   14.8030 H   0  0  0  0  0  0  0  0  0  0  0  0
    3.2990   16.1380   16.7410 H   0  0  0  0  0  0  0  0  0  0  0  0
    1.1550   17.3670   15.0290 H   0  0  0  0  0  0  0  0  0  0  0  0
    1.1080   15.3800   17.0070 H   0  0  0  0  0  0  0  0  0  0  0  0
    1.5280   16.2480   18.3470 H   0  0  0  0  0  0  0  0  0  0  0  0
    0.5180   16.9100   17.2250 H   0  0  0  0  0  0  0  0  0  0  0  0
    2.8540   18.1840   13.4650 H   0  0  0  0  0  0  0  0  0  0  0  0
    4.1410   17.6510   14.5510 H   0  0  0  0  0  0  0  0  0  0  0  0
    3.2940   15.2570   14.5580 H   0  0  0  0  0  0  0  0  0  0  0  0
    1.6970   14.9030   15.0400 H   0  0  0  0  0  0  0  0  0  0  0  0
    3.8110   15.7290   12.4350 H   0  0  0  0  0  0  0  0  0  0  0  0
   -1.7190   15.2340   11.8110 H   0  0  0  0  0  0  0  0  0  0  0  0
    0.8430   15.4180    9.3610 H   0  0  0  0  0  0  0  0  0  0  0  0
    3.8500   14.6810    9.4040 H   0  0  0  0  0  0  0  0  0  0  0  0
    3.1190   16.1100    8.7790 H   0  0  0  0  0  0  0  0  0  0  0  0
  1  2  1  0  0  0  0
  1  3  2  0  0  0  0
  1 29  1  0  0  0  0
  2  5  2  0  0  0  0
  2 30  1  0  0  0  0
  3  4  1  0  0  0  0
  3 31  1  0  0  0  0
  4  6  2  0  0  0  0
  4 32  1  0  0  0  0
  5  6  1  0  0  0  0
  5 33  1  0  0  0  0
  6  7  1  0  0  0  0
  7  8  1  0  0  0  0
  7 34  1  0  0  0  0
  7 35  1  0  0  0  0
  8  9  1  0  0  0  0
  8 10  1  0  0  0  0
  9 11  1  0  0  0  0
  9 12  2  0  0  0  0
 10 15  1  0  0  0  0
 10 36  1  0  0  0  0
 10 37  1  0  0  0  0
 11 13  1  0  0  0  0
 11 14  1  0  0  0  0
 11 38  1  0  0  0  0
 13 15  1  0  0  0  0
 13 16  1  0  0  0  0
 13 39  1  0  0  0  0
 14 40  1  0  0  0  0
 14 41  1  0  0  0  0
 14 42  1  0  0  0  0
 15 43  1  0  0  0  0
 15 44  1  0  0  0  0
 16 17  1  0  0  0  0
 16 45  1  0  0  0  0
 16 46  1  0  0  0  0
 17 18  1  0  0  0  0
 17 19  1  0  0  0  0
 18 23  2  0  0  0  0
 18 47  1  0  0  0  0
 19 20  2  0  0  0  0
 19 21  1  0  0  0  0
 21 22  1  0  0  0  0
 21 24  2  0  0  0  0
 22 48  1  0  0  0  0
 23 24  1  0  0  0  0
 23 25  1  0  0  0  0
 24 49  1  0  0  0  0
 25 26  1  0  0  0  0
 25 50  1  0  0  0  0
 25 51  1  0  0  0  0
 26 27  1  0  0  0  0
 26 28  2  0  0  0  0
M  CHG  1  14   1
M  CHG  1  27  -1
M  END
> <rseq>
1

> <mseq>
171

> <S>
-5.7295

> <rmsd_refine>
1.717441

> <E_conf>
-92.70547

> <E_score1>
-9.026203

> <E_refine>
-27.93353

> <E_score2>
-5.7295

>  <$File>
outputs/pdb_4j58_cleaned.pdb_2024_06_17__22_47_40_V2_BS398_MIN1_/SDF/sdf_db.sdf

> <Rec_index>
1

>  <PLIF_raw>
[[14,27,28,27,27,28],[1071,823,823,823,829,823],[71,54,54,54,54,54],[3,2,2,7,7,7],[4.2,0.7,4.4,4.068911871,3.22760612,4.399545668]]

> <FP:PLIF>
6 19 1 16 7 14

>  <PLIF_ligidx>
[[27,28],28,[27,27,28],[27,28],14,14]

$$$$
171
  MOE2022           3D

 52 54  0  0  1  0  0  0  0  0999 V2000
    8.6010   21.0830   18.3930 C   0  0  0  0  0  0  0  0  0  0  0  0
    8.3680   22.2700   17.7090 C   0  0  0  0  0  0  0  0  0  0  0  0
    7.5420   20.2350   18.6960 C   0  0  0  0  0  0  0  0  0  0  0  0
    6.2390   20.5720   18.3240 C   0  0  0  0  0  0  0  0  0  0  0  0
    6.0100   21.7770   17.6600 C   0  0  0  0  0  0  0  0  0  0  0  0
    5.0900   19.6370   18.6630 C   0  0  0  0  0  0  0  0  0  0  0  0
    4.2070   19.1770   17.5010 C   0  0  0  0  0  0  0  0  0  0  0  0
    3.0570   18.3560   17.6680 N   0  0  0  0  0  0  0  0  0  0  0  0
    7.0720   22.6210   17.3480 C   0  0  0  0  0  0  0  0  0  0  0  0
    2.7830   17.5140   18.7930 C   0  0  0  0  0  0  0  0  0  0  0  0
    2.0840   18.3880   16.5460 C   0  0  0  0  0  0  0  0  0  0  0  0
    1.6850   16.5480   18.7580 C   0  0  0  0  0  0  0  0  0  0  0  0
    4.4770   19.5350   16.3680 O   0  0  0  0  0  0  0  0  0  0  0  0
    1.2490   15.8140   19.8140 C   0  0  0  0  0  0  0  0  0  0  0  0
    3.5110   17.6070   19.7720 O   0  0  0  0  0  0  0  0  0  0  0  0
    1.7840   15.8930   21.0540 O   0  0  0  0  0  0  0  0  0  0  0  0
    2.3600   17.3940   15.4360 C   0  0  0  0  0  0  0  0  0  0  0  0
    1.9440   17.5320   14.1660 C   0  0  0  0  0  0  0  0  0  0  0  0
    3.0830   16.1540   15.5550 C   0  0  0  0  0  0  0  0  0  0  0  0
    2.3760   16.3430   13.3150 C   0  0  1  0  0  0  0  0  0  0  0  0
    3.1160   15.5360   14.3670 C   0  0  0  0  0  0  0  0  0  0  0  0
    1.2270   15.5630   12.6840 C   0  0  0  0  0  0  0  0  0  0  0  0
    1.5050   14.6880   11.6930 N   0  0  0  0  0  0  0  0  0  0  0  0
    0.0760   15.6910   13.1010 O   0  0  0  0  0  0  0  0  0  0  0  0
    0.4860   13.8770   11.0410 C   0  0  0  0  0  0  0  0  0  0  0  0
    2.8210   14.3270   11.1830 C   0  0  0  0  0  0  0  0  0  0  0  0
    1.2130   13.0670    9.9670 C   0  0  0  0  0  0  0  0  0  0  0  0
    2.6340   12.9660   10.5190 C   0  0  0  0  0  0  0  0  0  0  0  0
    9.5870   20.8230   18.6830 H   0  0  0  0  0  0  0  0  0  0  0  0
    9.1780   22.9040   17.4630 H   0  0  0  0  0  0  0  0  0  0  0  0
    7.7330   19.3310   19.2130 H   0  0  0  0  0  0  0  0  0  0  0  0
    5.0250   22.0530   17.3830 H   0  0  0  0  0  0  0  0  0  0  0  0
    5.5070   18.7780   19.1550 H   0  0  0  0  0  0  0  0  0  0  0  0
    4.4780   20.1120   19.4120 H   0  0  0  0  0  0  0  0  0  0  0  0
    6.8940   23.5300   16.8340 H   0  0  0  0  0  0  0  0  0  0  0  0
    1.0730   18.2650   16.9070 H   0  0  0  0  0  0  0  0  0  0  0  0
    2.0530   19.3820   16.1190 H   0  0  0  0  0  0  0  0  0  0  0  0
    1.2010   16.4010   17.8300 H   0  0  0  0  0  0  0  0  0  0  0  0
    0.4510   15.1190   19.7490 H   0  0  0  0  0  0  0  0  0  0  0  0
    2.5330   16.5270   21.0620 H   0  0  0  0  0  0  0  0  0  0  0  0
    1.3830   18.3510   13.7950 H   0  0  0  0  0  0  0  0  0  0  0  0
    3.5240   15.7840   16.4450 H   0  0  0  0  0  0  0  0  0  0  0  0
    3.0750   16.6780   12.5600 H   0  0  0  0  0  0  0  0  0  0  0  0
    3.5880   14.6120   14.1690 H   0  0  0  0  0  0  0  0  0  0  0  0
    0.0370   13.2030   11.7690 H   0  0  0  0  0  0  0  0  0  0  0  0
   -0.2850   14.5030   10.5890 H   0  0  0  0  0  0  0  0  0  0  0  0
    3.1350   15.0620   10.4400 H   0  0  0  0  0  0  0  0  0  0  0  0
    3.5660   14.2500   11.9740 H   0  0  0  0  0  0  0  0  0  0  0  0
    0.7600   12.0840    9.8280 H   0  0  0  0  0  0  0  0  0  0  0  0
    1.2200   13.6250    9.0300 H   0  0  0  0  0  0  0  0  0  0  0  0
    3.3680   12.7930    9.7310 H   0  0  0  0  0  0  0  0  0  0  0  0
    2.6810   12.1800   11.2750 H   0  0  0  0  0  0  0  0  0  0  0  0
  1  2  2  0  0  0  0
  1  3  1  0  0  0  0
  1 29  1  0  0  0  0
  2  9  1  0  0  0  0
  2 30  1  0  0  0  0
  3  4  2  0  0  0  0
  3 31  1  0  0  0  0
  4  5  1  0  0  0  0
  4  6  1  0  0  0  0
  5  9  2  0  0  0  0
  5 32  1  0  0  0  0
  6  7  1  0  0  0  0
  6 33  1  0  0  0  0
  6 34  1  0  0  0  0
  7  8  1  0  0  0  0
  7 13  2  0  0  0  0
  8 10  1  0  0  0  0
  8 11  1  0  0  0  0
  9 35  1  0  0  0  0
 10 12  1  0  0  0  0
 10 15  2  0  0  0  0
 11 17  1  0  0  0  0
 11 36  1  0  0  0  0
 11 37  1  0  0  0  0
 12 14  2  0  0  0  0
 12 38  1  0  0  0  0
 14 16  1  0  0  0  0
 14 39  1  0  0  0  0
 16 40  1  0  0  0  0
 17 18  2  0  0  0  0
 17 19  1  0  0  0  0
 18 20  1  0  0  0  0
 18 41  1  0  0  0  0
 19 21  2  0  0  0  0
 19 42  1  0  0  0  0
 20 21  1  0  0  0  0
 20 22  1  0  0  0  0
 20 43  1  0  0  0  0
 21 44  1  0  0  0  0
 22 23  1  0  0  0  0
 22 24  2  0  0  0  0
 23 25  1  0  0  0  0
 23 26  1  0  0  0  0
 25 27  1  0  0  0  0
 25 45  1  0  0  0  0
 25 46  1  0  0  0  0
 26 28  1  0  0  0  0
 26 47  1  0  0  0  0
 26 48  1  0  0  0  0
 27 28  1  0  0  0  0
 27 49  1  0  0  0  0
 27 50  1  0  0  0  0
 28 51  1  0  0  0  0
 28 52  1  0  0  0  0
M  END
> <rseq>
1

> <mseq>
172

> <S>
-6.461275

> <rmsd_refine>
1.825307

> <E_conf>
16.61458

> <E_score1>
-8.854064

> <E_refine>
-33.69484

> <E_score2>
-6.461275

>  <$File>
outputs/pdb_4j58_cleaned.pdb_2024_06_17__22_47_40_V2_BS398_MIN1_/SDF/sdf_db.sdf

> <Rec_index>
1

>  <PLIF_raw>
[[],[],[],[],[]]

>  <PLIF_ligidx>
[]

$$$$
172
  MOE2022           3D

 54 56  0  0  1  0  0  0  0  0999 V2000
    6.3810   21.0020   18.6520 C   0  0  0  0  0  0  0  0  0  0  0  0
    5.7400   22.0960   18.0800 C   0  0  0  0  0  0  0  0  0  0  0  0
    5.7000   19.8010   18.8100 C   0  0  0  0  0  0  0  0  0  0  0  0
    4.4150   21.9870   17.6670 C   0  0  0  0  0  0  0  0  0  0  0  0
    4.3680   19.6740   18.3940 C   0  0  0  0  0  0  0  0  0  0  0  0
    3.7320   20.7860   17.8230 C   0  0  0  0  0  0  0  0  0  0  0  0
    3.6450   18.4140   18.5910 C   0  0  0  0  0  0  0  0  0  0  0  0
    2.8830   17.8640   17.5630 N   0  0  0  0  0  0  0  0  0  0  0  0
    3.4420   17.9530   16.1940 C   0  0  0  0  0  0  0  0  0  0  0  0
    3.7110   17.8060   19.6540 O   0  0  0  0  0  0  0  0  0  0  0  0
    1.9370   16.7300   17.8440 C   0  0  1  0  0  0  0  0  0  0  0  0
    1.1160   16.9990   19.0240 N   0  0  0  0  0  0  0  0  0  0  0  0
    1.0160   16.3920   16.6430 C   0  0  0  0  0  0  0  0  0  0  0  0
    1.6670   16.3980   15.2790 N   0  3  1  0  0  0  0  0  0  0  0  0
    0.6960   16.1060   14.1590 C   0  0  0  0  0  0  0  0  0  0  0  0
    1.2660   16.1910   12.7300 C   0  0  0  0  0  0  0  0  0  0  0  0
    2.3770   15.1930   12.4430 C   0  0  0  0  0  0  0  0  0  0  0  0
    0.5290   16.0100   19.7650 C   0  0  0  0  0  0  0  0  0  0  0  0
    3.2940   15.4030   11.4040 N   0  0  0  0  0  0  0  0  0  0  0  0
    2.4260   17.6740   15.0890 C   0  0  0  0  0  0  0  0  0  0  0  0
    0.4470   14.8370   19.4040 O   0  0  0  0  0  0  0  0  0  0  0  0
    2.4730   14.1840   13.1200 O   0  0  0  0  0  0  0  0  0  0  0  0
    3.2840   16.5590   10.5650 C   0  0  0  0  0  0  0  0  0  0  0  0
    4.3080   14.3410   11.1370 C   0  0  0  0  0  0  0  0  0  0  0  0
    5.4520   14.7500   10.2310 C   0  0  0  0  0  0  0  0  0  0  0  0
    0.0180   16.4200   20.9560 N   0  0  0  0  0  0  0  0  0  0  0  0
    4.2920   16.8070    9.6920 C   0  0  0  0  0  0  0  0  0  0  0  0
    5.4140   15.9100    9.5530 C   0  0  0  0  0  0  0  0  0  0  0  0
    7.3900   21.0860   18.9680 H   0  0  0  0  0  0  0  0  0  0  0  0
    6.2600   23.0120   17.9610 H   0  0  0  0  0  0  0  0  0  0  0  0
    6.1990   18.9780   19.2490 H   0  0  0  0  0  0  0  0  0  0  0  0
    3.9260   22.8220   17.2360 H   0  0  0  0  0  0  0  0  0  0  0  0
    2.7200   20.7170   17.5180 H   0  0  0  0  0  0  0  0  0  0  0  0
    3.8880   18.9190   16.0030 H   0  0  0  0  0  0  0  0  0  0  0  0
    4.2500   17.2420   16.0960 H   0  0  0  0  0  0  0  0  0  0  0  0
    2.5380   15.8520   18.0470 H   0  0  0  0  0  0  0  0  0  0  0  0
    1.2620   17.9130   19.4780 H   0  0  0  0  0  0  0  0  0  0  0  0
    0.5340   15.4450   16.8490 H   0  0  0  0  0  0  0  0  0  0  0  0
    0.2010   17.1030   16.6670 H   0  0  0  0  0  0  0  0  0  0  0  0
    2.3420   15.6430   15.2760 H   0  0  0  0  0  0  0  0  0  0  0  0
    0.2560   15.1240   14.2810 H   0  0  0  0  0  0  0  0  0  0  0  0
   -0.1520   16.7760   14.2080 H   0  0  0  0  0  0  0  0  0  0  0  0
    0.4650   16.0280   12.0230 H   0  0  0  0  0  0  0  0  0  0  0  0
    1.5860   17.2060   12.5560 H   0  0  0  0  0  0  0  0  0  0  0  0
    1.7520   18.5190   15.0370 H   0  0  0  0  0  0  0  0  0  0  0  0
    2.9500   17.6910   14.1420 H   0  0  0  0  0  0  0  0  0  0  0  0
    2.4520   17.2020   10.6690 H   0  0  0  0  0  0  0  0  0  0  0  0
    4.7290   13.9920   12.0650 H   0  0  0  0  0  0  0  0  0  0  0  0
    3.8150   13.4780   10.7100 H   0  0  0  0  0  0  0  0  0  0  0  0
    6.2630   14.0750   10.1380 H   0  0  0  0  0  0  0  0  0  0  0  0
    0.0090   17.4280   21.1720 H   0  0  0  0  0  0  0  0  0  0  0  0
   -0.6810   15.8240   21.4190 H   0  0  0  0  0  0  0  0  0  0  0  0
    4.2750   17.6770    9.0860 H   0  0  0  0  0  0  0  0  0  0  0  0
    6.2030   16.1790    8.8980 H   0  0  0  0  0  0  0  0  0  0  0  0
  1  2  2  0  0  0  0
  1  3  1  0  0  0  0
  1 29  1  0  0  0  0
  2  4  1  0  0  0  0
  2 30  1  0  0  0  0
  3  5  2  0  0  0  0
  3 31  1  0  0  0  0
  4  6  2  0  0  0  0
  4 32  1  0  0  0  0
  5  6  1  0  0  0  0
  5  7  1  0  0  0  0
  6 33  1  0  0  0  0
  7  8  1  0  0  0  0
  7 10  2  0  0  0  0
  8  9  1  0  0  0  0
  8 11  1  0  0  0  0
  9 20  1  0  0  0  0
  9 34  1  0  0  0  0
  9 35  1  0  0  0  0
 11 12  1  0  0  0  0
 11 13  1  0  0  0  0
 11 36  1  0  0  0  0
 12 18  1  0  0  0  0
 12 37  1  0  0  0  0
 13 14  1  0  0  0  0
 13 38  1  0  0  0  0
 13 39  1  0  0  0  0
 14 15  1  0  0  0  0
 14 20  1  0  0  0  0
 14 40  1  0  0  0  0
 15 16  1  0  0  0  0
 15 41  1  0  0  0  0
 15 42  1  0  0  0  0
 16 17  1  0  0  0  0
 16 43  1  0  0  0  0
 16 44  1  0  0  0  0
 17 19  1  0  0  0  0
 17 22  2  0  0  0  0
 18 21  2  0  0  0  0
 18 26  1  0  0  0  0
 19 23  1  0  0  0  0
 19 24  1  0  0  0  0
 20 45  1  0  0  0  0
 20 46  1  0  0  0  0
 23 27  2  0  0  0  0
 23 47  1  0  0  0  0
 24 25  1  0  0  0  0
 24 48  1  0  0  0  0
 24 49  1  0  0  0  0
 25 28  2  0  0  0  0
 25 50  1  0  0  0  0
 26 51  1  0  0  0  0
 26 52  1  0  0  0  0
 27 28  1  0  0  0  0
 27 53  1  0  0  0  0
 28 54  1  0  0  0  0
M  CHG  1  14   1
M  END
> <rseq>
1

> <mseq>
173

> <S>
-6.041883

> <rmsd_refine>
1.606008

> <E_conf>
-122.4213

> <E_score1>
-9.311545

> <E_refine>
-31.12173

> <E_score2>
-6.041883

>  <$File>
outputs/pdb_4j58_cleaned.pdb_2024_06_17__22_47_40_V2_BS398_MIN1_/SDF/sdf_db.sdf

> <Rec_index>
1

>  <PLIF_raw>
[[24,21],[1056,1212],[70,81],[3,2],[0.5,2.7]]

> <FP:PLIF>
3 17 18

>  <PLIF_ligidx>
[24,21,21]

$$$$
173
  MOE2022           3D

 55 57  0  0  0  0  0  0  0  0999 V2000
    6.1400   14.1680    9.8600 C   0  0  0  0  0  0  0  0  0  0  0  0
    5.6680   15.3920    9.3950 C   0  0  0  0  0  0  0  0  0  0  0  0
    4.3380   15.7450    9.5960 C   0  0  0  0  0  0  0  0  0  0  0  0
    3.4730   14.8780   10.2740 C   0  0  0  0  0  0  0  0  0  0  0  0
    3.9480   13.6330   10.7020 C   0  0  0  0  0  0  0  0  0  0  0  0
    5.2780   13.2850   10.5030 C   0  0  0  0  0  0  0  0  0  0  0  0
    2.1140   15.2890   10.6090 C   0  0  0  0  0  0  0  0  0  0  0  0
    1.9240   16.0660   11.7440 N   0  0  0  0  0  0  0  0  0  0  0  0
    1.1420   14.9500    9.9400 O   0  0  0  0  0  0  0  0  0  0  0  0
    3.0170   16.2980   12.6930 C   0  0  0  0  0  0  0  0  0  0  0  0
    0.6110   16.1660   12.4100 C   0  0  0  0  0  0  0  0  0  0  0  0
    2.9510   15.2830   13.8440 C   0  0  0  0  0  0  0  0  0  0  0  0
    0.5180   15.2410   13.6450 C   0  0  0  0  0  0  0  0  0  0  0  0
    1.6760   15.3680   14.5660 N   0  0  0  0  0  0  0  0  0  0  0  0
    1.5640   16.2520   15.6730 C   0  0  0  0  0  0  0  0  0  0  0  0
    2.5300   17.2380   15.9300 C   0  0  0  0  0  0  0  0  0  0  0  0
    0.4780   16.0990   16.5490 C   0  0  0  0  0  0  0  0  0  0  0  0
    2.4020   18.0360   17.0610 C   0  0  0  0  0  0  0  0  0  0  0  0
    3.3620   19.0550   17.2780 N   0  0  0  0  0  0  0  0  0  0  0  0
    4.0920   19.2050   18.4290 C   0  0  0  0  0  0  0  0  0  0  0  0
    1.3390   17.8680   17.9500 C   0  0  0  0  0  0  0  0  0  0  0  0
    0.3770   16.9000   17.6820 C   0  0  0  0  0  0  0  0  0  0  0  0
    4.0550   18.3560   19.2990 O   0  0  0  0  0  0  0  0  0  0  0  0
    4.9380   20.4570   18.5430 C   0  0  0  0  0  0  0  0  0  0  0  0
    6.1970   20.4400   17.6620 C   0  0  0  0  0  0  0  0  0  0  0  0
    6.9950   21.7510   17.7160 C   0  0  0  0  0  0  0  0  0  0  0  0
    8.1840   21.7280   16.7470 C   0  0  0  0  0  0  0  0  0  0  0  0
    7.7400   21.7670   15.4050 O   0  0  0  0  0  0  0  0  0  0  0  0
    7.1550   13.9040    9.7280 H   0  0  0  0  0  0  0  0  0  0  0  0
    6.3220   16.0560    8.8910 H   0  0  0  0  0  0  0  0  0  0  0  0
    3.9830   16.6820    9.2510 H   0  0  0  0  0  0  0  0  0  0  0  0
    3.2960   12.9620   11.2000 H   0  0  0  0  0  0  0  0  0  0  0  0
    5.6390   12.3490   10.8470 H   0  0  0  0  0  0  0  0  0  0  0  0
    3.9850   16.2680   12.2210 H   0  0  0  0  0  0  0  0  0  0  0  0
    2.9350   17.3020   13.0870 H   0  0  0  0  0  0  0  0  0  0  0  0
    0.4550   17.1880   12.7280 H   0  0  0  0  0  0  0  0  0  0  0  0
   -0.2000   15.9520   11.7270 H   0  0  0  0  0  0  0  0  0  0  0  0
    3.0600   14.2850   13.4410 H   0  0  0  0  0  0  0  0  0  0  0  0
    3.7830   15.4010   14.5220 H   0  0  0  0  0  0  0  0  0  0  0  0
   -0.4180   15.4170   14.1570 H   0  0  0  0  0  0  0  0  0  0  0  0
    0.4710   14.2200   13.2970 H   0  0  0  0  0  0  0  0  0  0  0  0
    3.3530   17.3900   15.2840 H   0  0  0  0  0  0  0  0  0  0  0  0
   -0.2510   15.3540   16.3670 H   0  0  0  0  0  0  0  0  0  0  0  0
    3.5200   19.7360   16.5220 H   0  0  0  0  0  0  0  0  0  0  0  0
    1.2590   18.4750   18.8130 H   0  0  0  0  0  0  0  0  0  0  0  0
   -0.4370   16.7680   18.3470 H   0  0  0  0  0  0  0  0  0  0  0  0
    4.3300   21.3120   18.2800 H   0  0  0  0  0  0  0  0  0  0  0  0
    5.2230   20.6020   19.5760 H   0  0  0  0  0  0  0  0  0  0  0  0
    6.8410   19.6250   17.9950 H   0  0  0  0  0  0  0  0  0  0  0  0
    5.8930   20.2470   16.6330 H   0  0  0  0  0  0  0  0  0  0  0  0
    6.3460   22.5910   17.4660 H   0  0  0  0  0  0  0  0  0  0  0  0
    7.3730   21.8940   18.7290 H   0  0  0  0  0  0  0  0  0  0  0  0
    8.8200   22.5930   16.9360 H   0  0  0  0  0  0  0  0  0  0  0  0
    8.7650   20.8220   16.9150 H   0  0  0  0  0  0  0  0  0  0  0  0
    7.3440   22.6280   15.2440 H   0  0  0  0  0  0  0  0  0  0  0  0
  1  2  1  0  0  0  0
  1  6  2  0  0  0  0
  1 29  1  0  0  0  0
  2  3  2  0  0  0  0
  2 30  1  0  0  0  0
  3  4  1  0  0  0  0
  3 31  1  0  0  0  0
  4  5  2  0  0  0  0
  4  7  1  0  0  0  0
  5  6  1  0  0  0  0
  5 32  1  0  0  0  0
  6 33  1  0  0  0  0
  7  8  1  0  0  0  0
  7  9  2  0  0  0  0
  8 10  1  0  0  0  0
  8 11  1  0  0  0  0
 10 12  1  0  0  0  0
 10 34  1  0  0  0  0
 10 35  1  0  0  0  0
 11 13  1  0  0  0  0
 11 36  1  0  0  0  0
 11 37  1  0  0  0  0
 12 14  1  0  0  0  0
 12 38  1  0  0  0  0
 12 39  1  0  0  0  0
 13 14  1  0  0  0  0
 13 40  1  0  0  0  0
 13 41  1  0  0  0  0
 14 15  1  0  0  0  0
 15 16  2  0  0  0  0
 15 17  1  0  0  0  0
 16 18  1  0  0  0  0
 16 42  1  0  0  0  0
 17 22  2  0  0  0  0
 17 43  1  0  0  0  0
 18 19  1  0  0  0  0
 18 21  2  0  0  0  0
 19 20  1  0  0  0  0
 19 44  1  0  0  0  0
 20 23  2  0  0  0  0
 20 24  1  0  0  0  0
 21 22  1  0  0  0  0
 21 45  1  0  0  0  0
 22 46  1  0  0  0  0
 24 25  1  0  0  0  0
 24 47  1  0  0  0  0
 24 48  1  0  0  0  0
 25 26  1  0  0  0  0
 25 49  1  0  0  0  0
 25 50  1  0  0  0  0
 26 27  1  0  0  0  0
 26 51  1  0  0  0  0
 26 52  1  0  0  0  0
 27 28  1  0  0  0  0
 27 53  1  0  0  0  0
 27 54  1  0  0  0  0
 28 55  1  0  0  0  0
M  END
> <rseq>
1

> <mseq>
174

> <S>
-6.188869

> <rmsd_refine>
1.404072

> <E_conf>
8.375793

> <E_score1>
-8.740799

> <E_refine>
-32.64062

> <E_score2>
-6.188869

>  <$File>
outputs/pdb_4j58_cleaned.pdb_2024_06_17__22_47_40_V2_BS398_MIN1_/SDF/sdf_db.sdf

> <Rec_index>
1

>  <PLIF_raw>
[[28,1,6,5,4,3,2,15,17,22,21,18,16],[826,823,823,823,823,823,823,954,954,954,954,954,954],[54,54,54,54,54,54,54,62,62,62,62,62,62],[2,10,10,10,10,10,10,10,10,10,10,10,10],[2.1,1.5,1.5,1.5,1.5,1.5,1.5,0.7,0.7,0.7,0.7,0.7,0.7]]

> <FP:PLIF>
6 19 2 5 21

>  <PLIF_ligidx>
[28,28,[1,6,5,4,3,2],[1,6,5,4,3,2],[15,17,22,21,18,16]]

$$$$
174
  MOE2022           3D

 56 58  0  0  1  0  0  0  0  0999 V2000
    6.5820   21.0300   18.8060 C   0  0  0  0  0  0  0  0  0  0  0  0
    5.9690   22.1820   18.3220 C   0  0  0  0  0  0  0  0  0  0  0  0
    5.8640   19.8420   18.8880 C   0  0  0  0  0  0  0  0  0  0  0  0
    4.6370   22.1430   17.9220 C   0  0  0  0  0  0  0  0  0  0  0  0
    4.5230   19.7880   18.4850 C   0  0  0  0  0  0  0  0  0  0  0  0
    3.9170   20.9560   18.0040 C   0  0  0  0  0  0  0  0  0  0  0  0
    3.7620   18.5410   18.6120 C   0  0  0  0  0  0  0  0  0  0  0  0
    3.0010   18.0490   17.5540 N   0  0  0  0  0  0  0  0  0  0  0  0
    3.5450   18.2520   16.1890 C   0  0  0  0  0  0  0  0  0  0  0  0
    3.7890   17.8920   19.6520 O   0  0  0  0  0  0  0  0  0  0  0  0
    2.0750   16.8840   17.7870 C   0  0  1  0  0  0  0  0  0  0  0  0
    1.2000   17.1300   18.9330 N   0  0  0  0  0  0  0  0  0  0  0  0
    1.2190   16.5110   16.5500 C   0  0  0  0  0  0  0  0  0  0  0  0
    1.9190   16.5830   15.2150 N   0  3  1  0  0  0  0  0  0  0  0  0
    1.0320   16.2050   14.0540 C   0  0  0  0  0  0  0  0  0  0  0  0
    1.6630   16.2970   12.6490 C   0  0  0  0  0  0  0  0  0  0  0  0
    2.9000   15.4080   12.4320 C   0  0  0  0  0  0  0  0  0  0  0  0
    0.6520   16.1200   19.6780 C   0  0  0  0  0  0  0  0  0  0  0  0
    3.5300   15.4170   11.2320 N   0  0  0  0  0  0  0  0  0  0  0  0
    2.5670   17.9200   15.0630 C   0  0  0  0  0  0  0  0  0  0  0  0
    0.6000   14.9470   19.3150 O   0  0  0  0  0  0  0  0  0  0  0  0
    3.2770   14.7050   13.3690 O   0  0  0  0  0  0  0  0  0  0  0  0
    3.0880   16.2570   10.0950 C   0  0  0  0  0  0  0  0  0  0  0  0
    4.5120   14.3640   10.8850 C   0  0  0  0  0  0  0  0  0  0  0  0
    5.7220   14.8790   10.0880 C   0  0  0  0  0  0  0  0  0  0  0  0
    5.3410   15.8930    9.0360 C   0  0  0  0  0  0  0  0  0  0  0  0
    4.1550   16.5160    9.0470 C   0  0  0  0  0  0  0  0  0  0  0  0
    0.1460   16.5070   20.8780 N   0  0  0  0  0  0  0  0  0  0  0  0
    7.5960   21.0590   19.1130 H   0  0  0  0  0  0  0  0  0  0  0  0
    6.5170   23.0870   18.2600 H   0  0  0  0  0  0  0  0  0  0  0  0
    6.3410   18.9740   19.2600 H   0  0  0  0  0  0  0  0  0  0  0  0
    4.1690   23.0220   17.5580 H   0  0  0  0  0  0  0  0  0  0  0  0
    2.8980   20.9410   17.7100 H   0  0  0  0  0  0  0  0  0  0  0  0
    3.8870   19.2660   16.0430 H   0  0  0  0  0  0  0  0  0  0  0  0
    4.4220   17.6340   16.0660 H   0  0  0  0  0  0  0  0  0  0  0  0
    2.6920   16.0230   18.0140 H   0  0  0  0  0  0  0  0  0  0  0  0
    1.3140   18.0450   19.3930 H   0  0  0  0  0  0  0  0  0  0  0  0
    0.7900   15.5340   16.7240 H   0  0  0  0  0  0  0  0  0  0  0  0
    0.3610   17.1700   16.5550 H   0  0  0  0  0  0  0  0  0  0  0  0
    2.6600   15.8930   15.2350 H   0  0  0  0  0  0  0  0  0  0  0  0
    0.6570   15.1970   14.1770 H   0  0  0  0  0  0  0  0  0  0  0  0
    0.1360   16.8120   14.0460 H   0  0  0  0  0  0  0  0  0  0  0  0
    0.9030   16.0060   11.9250 H   0  0  0  0  0  0  0  0  0  0  0  0
    1.9230   17.3360   12.4540 H   0  0  0  0  0  0  0  0  0  0  0  0
    1.8250   18.7060   15.0240 H   0  0  0  0  0  0  0  0  0  0  0  0
    3.0990   18.0040   14.1250 H   0  0  0  0  0  0  0  0  0  0  0  0
    2.2340   15.7920    9.6210 H   0  0  0  0  0  0  0  0  0  0  0  0
    2.7400   17.2170   10.4470 H   0  0  0  0  0  0  0  0  0  0  0  0
    4.8730   13.8450   11.7610 H   0  0  0  0  0  0  0  0  0  0  0  0
    4.0070   13.6090   10.2980 H   0  0  0  0  0  0  0  0  0  0  0  0
    6.4400   15.3230   10.7570 H   0  0  0  0  0  0  0  0  0  0  0  0
    6.2290   14.0410    9.6300 H   0  0  0  0  0  0  0  0  0  0  0  0
    6.0680   16.1020    8.2930 H   0  0  0  0  0  0  0  0  0  0  0  0
    3.9040   17.2260    8.3010 H   0  0  0  0  0  0  0  0  0  0  0  0
    0.1040   17.5130   21.1000 H   0  0  0  0  0  0  0  0  0  0  0  0
   -0.5080   15.8780   21.3610 H   0  0  0  0  0  0  0  0  0  0  0  0
  1  2  2  0  0  0  0
  1  3  1  0  0  0  0
  1 29  1  0  0  0  0
  2  4  1  0  0  0  0
  2 30  1  0  0  0  0
  3  5  2  0  0  0  0
  3 31  1  0  0  0  0
  4  6  2  0  0  0  0
  4 32  1  0  0  0  0
  5  6  1  0  0  0  0
  5  7  1  0  0  0  0
  6 33  1  0  0  0  0
  7  8  1  0  0  0  0
  7 10  2  0  0  0  0
  8  9  1  0  0  0  0
  8 11  1  0  0  0  0
  9 20  1  0  0  0  0
  9 34  1  0  0  0  0
  9 35  1  0  0  0  0
 11 12  1  0  0  0  0
 11 13  1  0  0  0  0
 11 36  1  0  0  0  0
 12 18  1  0  0  0  0
 12 37  1  0  0  0  0
 13 14  1  0  0  0  0
 13 38  1  0  0  0  0
 13 39  1  0  0  0  0
 14 15  1  0  0  0  0
 14 20  1  0  0  0  0
 14 40  1  0  0  0  0
 15 16  1  0  0  0  0
 15 41  1  0  0  0  0
 15 42  1  0  0  0  0
 16 17  1  0  0  0  0
 16 43  1  0  0  0  0
 16 44  1  0  0  0  0
 17 19  1  0  0  0  0
 17 22  2  0  0  0  0
 18 21  2  0  0  0  0
 18 28  1  0  0  0  0
 19 23  1  0  0  0  0
 19 24  1  0  0  0  0
 20 45  1  0  0  0  0
 20 46  1  0  0  0  0
 23 27  1  0  0  0  0
 23 47  1  0  0  0  0
 23 48  1  0  0  0  0
 24 25  1  0  0  0  0
 24 49  1  0  0  0  0
 24 50  1  0  0  0  0
 25 26  1  0  0  0  0
 25 51  1  0  0  0  0
 25 52  1  0  0  0  0
 26 27  2  0  0  0  0
 26 53  1  0  0  0  0
 27 54  1  0  0  0  0
 28 55  1  0  0  0  0
 28 56  1  0  0  0  0
M  CHG  1  14   1
M  END
> <rseq>
1

> <mseq>
175

> <S>
-6.199282

> <rmsd_refine>
1.431749

> <E_conf>
-126.4061

> <E_score1>
-9.351533

> <E_refine>
-30.04204

> <E_score2>
-6.199282

>  <$File>
outputs/pdb_4j58_cleaned.pdb_2024_06_17__22_47_40_V2_BS398_MIN1_/SDF/sdf_db.sdf

> <Rec_index>
1

>  <PLIF_raw>
[21,1212,81,2,1.5]

> <FP:PLIF>
17 18

>  <PLIF_ligidx>
[21,21]

$$$$
175
  MOE2022           3D

 54 56  0  0  1  0  0  0  0  0999 V2000
    6.0950   20.9300   18.3090 C   0  0  0  0  0  0  0  0  0  0  0  0
    5.3910   21.9410   17.6610 C   0  0  0  0  0  0  0  0  0  0  0  0
    5.4620   19.7340   18.6250 C   0  0  0  0  0  0  0  0  0  0  0  0
    4.0520   21.7540   17.3340 C   0  0  0  0  0  0  0  0  0  0  0  0
    4.1170   19.5250   18.2880 C   0  0  0  0  0  0  0  0  0  0  0  0
    3.4170   20.5580   17.6480 C   0  0  0  0  0  0  0  0  0  0  0  0
    3.4530   18.2650   18.6390 C   0  0  0  0  0  0  0  0  0  0  0  0
    2.5680   17.6620   17.7520 N   0  0  0  0  0  0  0  0  0  0  0  0
    2.9620   17.6420   16.3220 C   0  0  0  0  0  0  0  0  0  0  0  0
    3.6770   17.7070   19.7080 O   0  0  0  0  0  0  0  0  0  0  0  0
    1.6700   16.5460   18.2100 C   0  0  1  0  0  0  0  0  0  0  0  0
    1.0220   16.8430   19.4840 N   0  0  0  0  0  0  0  0  0  0  0  0
    0.5890   16.1840   17.1620 C   0  0  0  0  0  0  0  0  0  0  0  0
    1.0740   16.0790   15.7430 N   0  3  1  0  0  0  0  0  0  0  0  0
    0.0030   15.6570   14.7730 C   0  0  0  0  0  0  0  0  0  0  0  0
    0.3930   15.6420   13.2820 C   0  0  0  0  0  0  0  0  0  0  0  0
    1.6830   14.8760   12.9460 C   0  0  0  0  0  0  0  0  0  0  0  0
    0.6370   15.7840   20.2900 C   0  0  0  0  0  0  0  0  0  0  0  0
    2.2250   14.9960   11.7120 N   0  0  0  0  0  0  0  0  0  0  0  0
    1.5300   15.5840   10.5470 C   0  0  0  0  0  0  0  0  0  0  0  0
    3.4740   14.2880   11.3680 C   0  0  0  0  0  0  0  0  0  0  0  0
    0.3740   14.6740   19.7570 O   0  0  0  0  0  0  0  0  0  0  0  0
    2.2160   14.2020   13.8260 O   0  0  0  0  0  0  0  0  0  0  0  0
    0.5540   16.0170   21.5210 O   0  5  0  0  0  0  0  0  0  0  0  0
    1.8100   17.3220   15.3680 C   0  0  0  0  0  0  0  0  0  0  0  0
    4.3370   15.0470   10.3460 C   0  0  0  0  0  0  0  0  0  0  0  0
    2.4920   16.2860    9.5720 C   0  0  0  0  0  0  0  0  0  0  0  0
    3.5790   15.4430    9.2120 O   0  0  0  0  0  0  0  0  0  0  0  0
    7.1140   21.0740   18.5630 H   0  0  0  0  0  0  0  0  0  0  0  0
    5.8740   22.8530   17.4200 H   0  0  0  0  0  0  0  0  0  0  0  0
    6.0060   18.9770   19.1260 H   0  0  0  0  0  0  0  0  0  0  0  0
    3.5130   22.5280   16.8490 H   0  0  0  0  0  0  0  0  0  0  0  0
    2.3920   20.4330   17.4090 H   0  0  0  0  0  0  0  0  0  0  0  0
    3.4070   18.5750   16.0110 H   0  0  0  0  0  0  0  0  0  0  0  0
    3.7350   16.8980   16.1820 H   0  0  0  0  0  0  0  0  0  0  0  0
    2.2950   15.6730   18.3480 H   0  0  0  0  0  0  0  0  0  0  0  0
    1.5030   17.5790   20.0200 H   0  0  0  0  0  0  0  0  0  0  0  0
    0.1070   15.2700   17.4830 H   0  0  0  0  0  0  0  0  0  0  0  0
   -0.1920   16.9280   17.2430 H   0  0  0  0  0  0  0  0  0  0  0  0
    1.7550   15.3280   15.7410 H   0  0  0  0  0  0  0  0  0  0  0  0
   -0.3580   14.6700   15.0270 H   0  0  0  0  0  0  0  0  0  0  0  0
   -0.8740   16.2830   14.8730 H   0  0  0  0  0  0  0  0  0  0  0  0
   -0.4310   15.2050   12.7170 H   0  0  0  0  0  0  0  0  0  0  0  0
    0.5030   16.6780   12.9620 H   0  0  0  0  0  0  0  0  0  0  0  0
    1.0150   14.7960   10.0150 H   0  0  0  0  0  0  0  0  0  0  0  0
    0.7650   16.2890   10.8340 H   0  0  0  0  0  0  0  0  0  0  0  0
    4.0750   14.1160   12.2480 H   0  0  0  0  0  0  0  0  0  0  0  0
    3.2320   13.3100   10.9740 H   0  0  0  0  0  0  0  0  0  0  0  0
    1.1440   18.1750   15.3480 H   0  0  0  0  0  0  0  0  0  0  0  0
    2.2080   17.2650   14.3640 H   0  0  0  0  0  0  0  0  0  0  0  0
    4.7620   15.9360   10.8140 H   0  0  0  0  0  0  0  0  0  0  0  0
    5.1600   14.4120   10.0190 H   0  0  0  0  0  0  0  0  0  0  0  0
    1.9540   16.5700    8.6670 H   0  0  0  0  0  0  0  0  0  0  0  0
    2.8830   17.1950   10.0300 H   0  0  0  0  0  0  0  0  0  0  0  0
  1  2  2  0  0  0  0
  1  3  1  0  0  0  0
  1 29  1  0  0  0  0
  2  4  1  0  0  0  0
  2 30  1  0  0  0  0
  3  5  2  0  0  0  0
  3 31  1  0  0  0  0
  4  6  2  0  0  0  0
  4 32  1  0  0  0  0
  5  6  1  0  0  0  0
  5  7  1  0  0  0  0
  6 33  1  0  0  0  0
  7  8  1  0  0  0  0
  7 10  2  0  0  0  0
  8  9  1  0  0  0  0
  8 11  1  0  0  0  0
  9 25  1  0  0  0  0
  9 34  1  0  0  0  0
  9 35  1  0  0  0  0
 11 12  1  0  0  0  0
 11 13  1  0  0  0  0
 11 36  1  0  0  0  0
 12 18  1  0  0  0  0
 12 37  1  0  0  0  0
 13 14  1  0  0  0  0
 13 38  1  0  0  0  0
 13 39  1  0  0  0  0
 14 15  1  0  0  0  0
 14 25  1  0  0  0  0
 14 40  1  0  0  0  0
 15 16  1  0  0  0  0
 15 41  1  0  0  0  0
 15 42  1  0  0  0  0
 16 17  1  0  0  0  0
 16 43  1  0  0  0  0
 16 44  1  0  0  0  0
 17 19  1  0  0  0  0
 17 23  2  0  0  0  0
 18 22  2  0  0  0  0
 18 24  1  0  0  0  0
 19 20  1  0  0  0  0
 19 21  1  0  0  0  0
 20 27  1  0  0  0  0
 20 45  1  0  0  0  0
 20 46  1  0  0  0  0
 21 26  1  0  0  0  0
 21 47  1  0  0  0  0
 21 48  1  0  0  0  0
 25 49  1  0  0  0  0
 25 50  1  0  0  0  0
 26 28  1  0  0  0  0
 26 51  1  0  0  0  0
 26 52  1  0  0  0  0
 27 28  1  0  0  0  0
 27 53  1  0  0  0  0
 27 54  1  0  0  0  0
M  CHG  1  14   1
M  CHG  1  24  -1
M  END
> <rseq>
1

> <mseq>
176

> <S>
-5.786077

> <rmsd_refine>
2.19113

> <E_conf>
-172.8544

> <E_score1>
-9.418601

> <E_refine>
-36.31093

> <E_score2>
-5.786077

>  <$File>
outputs/pdb_4j58_cleaned.pdb_2024_06_17__22_47_40_V2_BS398_MIN1_/SDF/sdf_db.sdf

> <Rec_index>
1

>  <PLIF_raw>
[[14,22,24,22,22,24,24],[1071,1212,1206,1206,1212,1206,1212],[71,81,81,81,81,81,81],[3,2,2,7,7,7,7],[0.6,9.2,7.8,0.5902217044,4.584884388,4.205613669,1.900158118]]

> <FP:PLIF>
7 17 18 24 25

>  <PLIF_ligidx>
[14,[22,24],[22,24],[22,22,24,24],[22,24]]

$$$$
176
  MOE2022           3D

 57 59  0  0  0  0  0  0  0  0999 V2000
    5.8460   14.1930    9.6770 C   0  0  0  0  0  0  0  0  0  0  0  0
    5.9060   15.5800    9.5820 C   0  0  0  0  0  0  0  0  0  0  0  0
    4.8100   16.3530    9.9400 C   0  0  0  0  0  0  0  0  0  0  0  0
    3.6380   15.7480   10.4040 C   0  0  0  0  0  0  0  0  0  0  0  0
    3.5730   14.3490   10.4630 C   0  0  0  0  0  0  0  0  0  0  0  0
    4.6760   13.5780   10.1120 C   0  0  0  0  0  0  0  0  0  0  0  0
    2.5100   16.5830   10.8100 C   0  0  0  0  0  0  0  0  0  0  0  0
    1.9730   16.4640   12.0850 N   0  0  0  0  0  0  0  0  0  0  0  0
    2.0350   17.4210   10.0480 O   0  0  0  0  0  0  0  0  0  0  0  0
    2.6290   15.7280   13.1800 C   0  0  0  0  0  0  0  0  0  0  0  0
    0.8500   17.3110   12.5370 C   0  0  0  0  0  0  0  0  0  0  0  0
    1.6220   14.9590   14.0460 C   0  0  0  0  0  0  0  0  0  0  0  0
   -0.1280   16.5810   13.4800 C   0  0  0  0  0  0  0  0  0  0  0  0
    0.5060   15.7790   14.5440 N   0  0  0  0  0  0  0  0  0  0  0  0
    0.7520   16.4120   15.7760 C   0  0  0  0  0  0  0  0  0  0  0  0
    1.6420   17.4850   15.8880 C   0  0  0  0  0  0  0  0  0  0  0  0
    0.1050   15.9090   16.9100 C   0  0  0  0  0  0  0  0  0  0  0  0
    1.9100   18.0100   17.1500 C   0  0  0  0  0  0  0  0  0  0  0  0
    2.8290   19.0870   17.2350 N   0  0  0  0  0  0  0  0  0  0  0  0
    3.7870   19.2500   18.2070 C   0  0  0  0  0  0  0  0  0  0  0  0
    1.2770   17.5050   18.2920 C   0  0  0  0  0  0  0  0  0  0  0  0
    0.3720   16.4560   18.1610 C   0  0  0  0  0  0  0  0  0  0  0  0
    3.9850   18.3900   19.0450 O   0  0  0  0  0  0  0  0  0  0  0  0
    4.5730   20.5430   18.1780 C   0  0  0  0  0  0  0  0  0  0  0  0
    6.0610   20.3450   17.8440 C   0  0  0  0  0  0  0  0  0  0  0  0
    6.8710   21.6490   17.7280 C   0  0  0  0  0  0  0  0  0  0  0  0
    6.9270   22.4250   19.0510 C   0  0  0  0  0  0  0  0  0  0  0  0
    8.3020   21.3260   17.2780 C   0  0  0  0  0  0  0  0  0  0  0  0
    6.6860   13.6050    9.4120 H   0  0  0  0  0  0  0  0  0  0  0  0
    6.7860   16.0500    9.2330 H   0  0  0  0  0  0  0  0  0  0  0  0
    4.8630   17.4090    9.8640 H   0  0  0  0  0  0  0  0  0  0  0  0
    2.6830   13.8740   10.7860 H   0  0  0  0  0  0  0  0  0  0  0  0
    4.6260   12.5210   10.1770 H   0  0  0  0  0  0  0  0  0  0  0  0
    3.3760   15.0340   12.8340 H   0  0  0  0  0  0  0  0  0  0  0  0
    3.1770   16.4260   13.7970 H   0  0  0  0  0  0  0  0  0  0  0  0
    1.2440   18.1860   13.0330 H   0  0  0  0  0  0  0  0  0  0  0  0
    0.2860   17.6920   11.6970 H   0  0  0  0  0  0  0  0  0  0  0  0
    1.2240   14.1330   13.4740 H   0  0  0  0  0  0  0  0  0  0  0  0
    2.1510   14.5160   14.8740 H   0  0  0  0  0  0  0  0  0  0  0  0
   -0.8170   17.2930   13.9130 H   0  0  0  0  0  0  0  0  0  0  0  0
   -0.7400   15.9190   12.8830 H   0  0  0  0  0  0  0  0  0  0  0  0
    2.1210   17.8870   15.0360 H   0  0  0  0  0  0  0  0  0  0  0  0
   -0.5750   15.1020   16.8150 H   0  0  0  0  0  0  0  0  0  0  0  0
    2.7870   19.8020   16.4940 H   0  0  0  0  0  0  0  0  0  0  0  0
    1.4740   17.9160   19.2460 H   0  0  0  0  0  0  0  0  0  0  0  0
   -0.1140   16.0700   19.0190 H   0  0  0  0  0  0  0  0  0  0  0  0
    4.1310   21.2310   17.4700 H   0  0  0  0  0  0  0  0  0  0  0  0
    4.4740   21.0150   19.1440 H   0  0  0  0  0  0  0  0  0  0  0  0
    6.5110   19.7040   18.6050 H   0  0  0  0  0  0  0  0  0  0  0  0
    6.1110   19.8250   16.8880 H   0  0  0  0  0  0  0  0  0  0  0  0
    6.4100   22.2850   16.9700 H   0  0  0  0  0  0  0  0  0  0  0  0
    7.3380   21.7960   19.8430 H   0  0  0  0  0  0  0  0  0  0  0  0
    7.5600   23.3020   18.9270 H   0  0  0  0  0  0  0  0  0  0  0  0
    5.9310   22.7640   19.3310 H   0  0  0  0  0  0  0  0  0  0  0  0
    8.8700   22.2490   17.1490 H   0  0  0  0  0  0  0  0  0  0  0  0
    8.7970   20.7040   18.0250 H   0  0  0  0  0  0  0  0  0  0  0  0
    8.2810   20.7940   16.3270 H   0  0  0  0  0  0  0  0  0  0  0  0
  1  2  2  0  0  0  0
  1  6  1  0  0  0  0
  1 29  1  0  0  0  0
  2  3  1  0  0  0  0
  2 30  1  0  0  0  0
  3  4  2  0  0  0  0
  3 31  1  0  0  0  0
  4  5  1  0  0  0  0
  4  7  1  0  0  0  0
  5  6  2  0  0  0  0
  5 32  1  0  0  0  0
  6 33  1  0  0  0  0
  7  8  1  0  0  0  0
  7  9  2  0  0  0  0
  8 10  1  0  0  0  0
  8 11  1  0  0  0  0
 10 12  1  0  0  0  0
 10 34  1  0  0  0  0
 10 35  1  0  0  0  0
 11 13  1  0  0  0  0
 11 36  1  0  0  0  0
 11 37  1  0  0  0  0
 12 14  1  0  0  0  0
 12 38  1  0  0  0  0
 12 39  1  0  0  0  0
 13 14  1  0  0  0  0
 13 40  1  0  0  0  0
 13 41  1  0  0  0  0
 14 15  1  0  0  0  0
 15 16  1  0  0  0  0
 15 17  2  0  0  0  0
 16 18  2  0  0  0  0
 16 42  1  0  0  0  0
 17 22  1  0  0  0  0
 17 43  1  0  0  0  0
 18 19  1  0  0  0  0
 18 21  1  0  0  0  0
 19 20  1  0  0  0  0
 19 44  1  0  0  0  0
 20 23  2  0  0  0  0
 20 24  1  0  0  0  0
 21 22  2  0  0  0  0
 21 45  1  0  0  0  0
 22 46  1  0  0  0  0
 24 25  1  0  0  0  0
 24 47  1  0  0  0  0
 24 48  1  0  0  0  0
 25 26  1  0  0  0  0
 25 49  1  0  0  0  0
 25 50  1  0  0  0  0
 26 27  1  0  0  0  0
 26 28  1  0  0  0  0
 26 51  1  0  0  0  0
 27 52  1  0  0  0  0
 27 53  1  0  0  0  0
 27 54  1  0  0  0  0
 28 55  1  0  0  0  0
 28 56  1  0  0  0  0
 28 57  1  0  0  0  0
M  END
> <rseq>
1

> <mseq>
177

> <S>
-6.073591

> <rmsd_refine>
0.9407465

> <E_conf>
5.988527

> <E_score1>
-8.910085

> <E_refine>
-28.67938

> <E_score2>
-6.073591

>  <$File>
outputs/pdb_4j58_cleaned.pdb_2024_06_17__22_47_40_V2_BS398_MIN1_/SDF/sdf_db.sdf

> <Rec_index>
1

>  <PLIF_raw>
[[],[],[],[],[]]

>  <PLIF_ligidx>
[]

$$$$
177
  MOE2022           3D

 49 51  0  0  1  0  0  0  0  0999 V2000
    2.7770   16.4050   20.7450 C   0  0  0  0  0  0  0  0  0  0  0  0
    2.9920   17.1020   19.5600 C   0  0  0  0  0  0  0  0  0  0  0  0
    1.5050   15.9690   21.0790 C   0  0  0  0  0  0  0  0  0  0  0  0
    0.4570   16.2270   20.2040 C   0  0  0  0  0  0  0  0  0  0  0  0
   -0.7890   15.7730   20.5250 O   0  0  0  0  0  0  0  0  0  0  0  0
    1.9410   17.3770   18.6810 C   0  0  0  0  0  0  0  0  0  0  0  0
    0.6630   16.9230   19.0120 C   0  0  0  0  0  0  0  0  0  0  0  0
    2.1580   18.0540   17.3260 C   0  0  1  0  0  0  0  0  0  0  0  0
    2.7270   19.4200   17.2500 N   0  0  0  0  0  0  0  0  0  0  0  0
    3.7780   19.9890   18.1150 C   0  0  0  0  0  0  0  0  0  0  0  0
    2.3030   20.2210   16.2130 C   0  0  0  0  0  0  0  0  0  0  0  0
    2.2310   21.4450   16.3310 O   0  0  0  0  0  0  0  0  0  0  0  0
    2.8750   17.1800   16.4670 O   0  0  0  0  0  0  0  0  0  0  0  0
    2.8320   17.2910   15.1000 C   0  0  0  0  0  0  0  0  0  0  0  0
    3.1800   16.1460   14.3930 C   0  0  0  0  0  0  0  0  0  0  0  0
    2.4850   18.4670   14.4050 C   0  0  0  0  0  0  0  0  0  0  0  0
    3.2900   16.1890   13.0090 C   0  0  0  0  0  0  0  0  0  0  0  0
    5.1280   20.2140   17.4120 C   0  0  0  0  0  0  0  0  0  0  0  0
    1.9780   19.6610   14.9940 N   0  0  0  0  0  0  0  0  0  0  0  0
    2.6250   18.5080   13.0180 C   0  0  0  0  0  0  0  0  0  0  0  0
    3.0820   17.3870   12.3120 C   0  0  0  0  0  0  0  0  0  0  0  0
    6.2160   20.8840   18.2820 C   0  0  0  0  0  0  0  0  0  0  0  0
    7.4860   21.0900   17.4410 C   0  0  0  0  0  0  0  0  0  0  0  0
    5.7650   22.1500   18.7170 O   0  0  0  0  0  0  0  0  0  0  0  0
    6.5760   20.0620   19.5290 C   0  0  0  0  0  0  0  0  0  0  0  0
    3.3880   17.4760   10.8860 C   0  0  0  0  0  0  0  0  0  0  0  0
    2.7510   18.2830   10.1590 O   0  0  0  0  0  0  0  0  0  0  0  0
    4.3280   16.7760   10.4190 O   0  5  0  0  0  0  0  0  0  0  0  0
    3.5890   16.1980   21.3900 H   0  0  0  0  0  0  0  0  0  0  0  0
    3.9710   17.4090   19.3270 H   0  0  0  0  0  0  0  0  0  0  0  0
    1.3410   15.4440   21.9830 H   0  0  0  0  0  0  0  0  0  0  0  0
   -1.4310   16.0210   19.8300 H   0  0  0  0  0  0  0  0  0  0  0  0
   -0.1490   17.0900   18.3520 H   0  0  0  0  0  0  0  0  0  0  0  0
    1.1690   18.1220   16.8910 H   0  0  0  0  0  0  0  0  0  0  0  0
    3.4300   20.9360   18.5040 H   0  0  0  0  0  0  0  0  0  0  0  0
    3.9360   19.3810   18.9830 H   0  0  0  0  0  0  0  0  0  0  0  0
    3.3800   15.2450   14.9110 H   0  0  0  0  0  0  0  0  0  0  0  0
    3.5660   15.3140   12.4790 H   0  0  0  0  0  0  0  0  0  0  0  0
    5.4840   19.2500   17.0640 H   0  0  0  0  0  0  0  0  0  0  0  0
    4.9610   20.8380   16.5320 H   0  0  0  0  0  0  0  0  0  0  0  0
    1.5400   20.3230   14.3360 H   0  0  0  0  0  0  0  0  0  0  0  0
    2.4050   19.4020   12.4930 H   0  0  0  0  0  0  0  0  0  0  0  0
    7.2610   21.6970   16.5630 H   0  0  0  0  0  0  0  0  0  0  0  0
    8.2500   21.5970   18.0330 H   0  0  0  0  0  0  0  0  0  0  0  0
    7.8790   20.1260   17.1150 H   0  0  0  0  0  0  0  0  0  0  0  0
    5.4890   22.6520   17.9460 H   0  0  0  0  0  0  0  0  0  0  0  0
    7.3790   20.5530   20.0780 H   0  0  0  0  0  0  0  0  0  0  0  0
    5.7120   19.9740   20.1870 H   0  0  0  0  0  0  0  0  0  0  0  0
    6.9090   19.0680   19.2360 H   0  0  0  0  0  0  0  0  0  0  0  0
  1  2  2  0  0  0  0
  1  3  1  0  0  0  0
  1 29  1  0  0  0  0
  2  6  1  0  0  0  0
  2 30  1  0  0  0  0
  3  4  2  0  0  0  0
  3 31  1  0  0  0  0
  4  5  1  0  0  0  0
  4  7  1  0  0  0  0
  5 32  1  0  0  0  0
  6  7  2  0  0  0  0
  6  8  1  0  0  0  0
  7 33  1  0  0  0  0
  8  9  1  0  0  0  0
  8 13  1  0  0  0  0
  8 34  1  0  0  0  0
  9 10  1  0  0  0  0
  9 11  1  0  0  0  0
 10 18  1  0  0  0  0
 10 35  1  0  0  0  0
 10 36  1  0  0  0  0
 11 12  2  0  0  0  0
 11 19  1  0  0  0  0
 13 14  1  0  0  0  0
 14 15  2  0  0  0  0
 14 16  1  0  0  0  0
 15 17  1  0  0  0  0
 15 37  1  0  0  0  0
 16 19  1  0  0  0  0
 16 20  2  0  0  0  0
 17 21  2  0  0  0  0
 17 38  1  0  0  0  0
 18 22  1  0  0  0  0
 18 39  1  0  0  0  0
 18 40  1  0  0  0  0
 19 41  1  0  0  0  0
 20 21  1  0  0  0  0
 20 42  1  0  0  0  0
 21 26  1  0  0  0  0
 22 23  1  0  0  0  0
 22 24  1  0  0  0  0
 22 25  1  0  0  0  0
 23 43  1  0  0  0  0
 23 44  1  0  0  0  0
 23 45  1  0  0  0  0
 24 46  1  0  0  0  0
 25 47  1  0  0  0  0
 25 48  1  0  0  0  0
 25 49  1  0  0  0  0
 26 27  2  0  0  0  0
 26 28  1  0  0  0  0
M  CHG  1  28  -1
M  END
> <rseq>
1

> <mseq>
178

> <S>
-6.278829

> <rmsd_refine>
1.02799

> <E_conf>
-200.6592

> <E_score1>
-12.02066

> <E_refine>
-33.77533

> <E_score2>
-6.278829

>  <$File>
outputs/pdb_4j58_cleaned.pdb_2024_06_17__22_47_40_V2_BS398_MIN1_/SDF/sdf_db.sdf

> <Rec_index>
1

>  <PLIF_raw>
[[28,28,28],[823,823,829],[54,54,54],[2,7,7],[1.3,3.402131716,0.7183511532]]

> <FP:PLIF>
6 1

>  <PLIF_ligidx>
[28,[28,28]]

$$$$
178
  MOE2022           3D

 47 48  0  0  1  0  0  0  0  0999 V2000
    8.3180   20.6890   18.6160 C   0  0  0  0  0  0  0  0  0  0  0  0
    8.4000   21.9280   17.9890 C   0  0  0  0  0  0  0  0  0  0  0  0
    7.0790   20.0850   18.8050 C   0  0  0  0  0  0  0  0  0  0  0  0
    5.9140   20.7130   18.3650 C   0  0  0  0  0  0  0  0  0  0  0  0
    6.0040   21.9540   17.7340 C   0  0  0  0  0  0  0  0  0  0  0  0
    7.2430   22.5610   17.5490 C   0  0  0  0  0  0  0  0  0  0  0  0
    4.5660   20.0450   18.5620 C   0  0  0  0  0  0  0  0  0  0  0  0
    4.1380   19.1170   17.4230 C   0  0  0  0  0  0  0  0  0  0  0  0
    3.0670   18.1750   17.5180 N   0  0  0  0  0  0  0  0  0  0  0  0
    2.7000   17.5440   18.7460 C   0  0  0  0  0  0  0  0  0  0  0  0
    2.4750   17.7270   16.2270 C   0  0  2  0  0  0  0  0  0  0  0  0
    4.6840   19.2440   16.3440 O   0  0  0  0  0  0  0  0  0  0  0  0
    0.9440   17.8240   16.2450 C   0  0  1  0  0  0  0  0  0  0  0  0
    1.4050   16.8940   19.0620 C   0  0  0  0  0  0  0  0  0  0  0  0
    3.0710   16.3690   15.7800 C   0  0  0  0  0  0  0  0  0  0  0  0
    1.0630   16.7410   20.2280 O   0  0  0  0  0  0  0  0  0  0  0  0
    3.5670   17.5040   19.6060 O   0  0  0  0  0  0  0  0  0  0  0  0
    0.4200   18.1100   14.9230 O   0  0  0  0  0  0  0  0  0  0  0  0
    0.3040   16.6000   16.8480 C   0  0  0  0  0  0  0  0  0  0  0  0
    2.6940   15.9130   14.3640 C   0  0  0  0  0  0  0  0  0  0  0  0
    3.1480   16.8660   13.4130 O   0  0  0  0  0  0  0  0  0  0  0  0
    2.5640   16.7210   12.1220 C   0  0  0  0  0  0  0  0  0  0  0  0
   -0.3830   15.8200   16.2190 O   0  0  0  0  0  0  0  0  0  0  0  0
    0.5110   16.3200   18.1690 N   0  0  0  0  0  0  0  0  0  0  0  0
    3.1530   15.5730   11.2830 C   0  0  0  0  0  0  0  0  0  0  0  0
    4.5420   15.8690   10.7170 C   0  0  0  0  0  0  0  0  0  0  0  0
    5.3810   14.9430   10.7400 O   0  5  0  0  0  0  0  0  0  0  0  0
    4.7610   17.0140   10.2630 O   0  0  0  0  0  0  0  0  0  0  0  0
    9.2000   20.2050   18.9460 H   0  0  0  0  0  0  0  0  0  0  0  0
    9.3430   22.3870   17.8470 H   0  0  0  0  0  0  0  0  0  0  0  0
    7.0250   19.1420   19.2840 H   0  0  0  0  0  0  0  0  0  0  0  0
    5.1270   22.4390   17.3890 H   0  0  0  0  0  0  0  0  0  0  0  0
    7.3050   23.5040   17.0700 H   0  0  0  0  0  0  0  0  0  0  0  0
    4.5920   19.5640   19.5240 H   0  0  0  0  0  0  0  0  0  0  0  0
    3.8090   20.8090   18.6650 H   0  0  0  0  0  0  0  0  0  0  0  0
    2.7520   18.4360   15.4590 H   0  0  0  0  0  0  0  0  0  0  0  0
    0.6810   18.6790   16.8550 H   0  0  0  0  0  0  0  0  0  0  0  0
    4.1530   16.4490   15.8290 H   0  0  0  0  0  0  0  0  0  0  0  0
    2.7860   15.5990   16.4880 H   0  0  0  0  0  0  0  0  0  0  0  0
   -0.5470   18.0150   14.9150 H   0  0  0  0  0  0  0  0  0  0  0  0
    3.1600   14.9470   14.1630 H   0  0  0  0  0  0  0  0  0  0  0  0
    1.6110   15.7970   14.3020 H   0  0  0  0  0  0  0  0  0  0  0  0
    1.4900   16.5660   12.2290 H   0  0  0  0  0  0  0  0  0  0  0  0
    2.7000   17.6560   11.5780 H   0  0  0  0  0  0  0  0  0  0  0  0
   -0.1010   15.5880   18.5640 H   0  0  0  0  0  0  0  0  0  0  0  0
    3.1890   14.6600   11.8770 H   0  0  0  0  0  0  0  0  0  0  0  0
    2.4890   15.3940   10.4380 H   0  0  0  0  0  0  0  0  0  0  0  0
  1  2  2  0  0  0  0
  1  3  1  0  0  0  0
  1 29  1  0  0  0  0
  2  6  1  0  0  0  0
  2 30  1  0  0  0  0
  3  4  2  0  0  0  0
  3 31  1  0  0  0  0
  4  5  1  0  0  0  0
  4  7  1  0  0  0  0
  5  6  2  0  0  0  0
  5 32  1  0  0  0  0
  6 33  1  0  0  0  0
  7  8  1  0  0  0  0
  7 34  1  0  0  0  0
  7 35  1  0  0  0  0
  8  9  1  0  0  0  0
  8 12  2  0  0  0  0
  9 10  1  0  0  0  0
  9 11  1  0  0  0  0
 10 14  1  0  0  0  0
 10 17  2  0  0  0  0
 11 13  1  0  0  0  0
 11 15  1  0  0  0  0
 11 36  1  0  0  0  0
 13 18  1  0  0  0  0
 13 19  1  0  0  0  0
 13 37  1  0  0  0  0
 14 16  2  0  0  0  0
 14 24  1  0  0  0  0
 15 20  1  0  0  0  0
 15 38  1  0  0  0  0
 15 39  1  0  0  0  0
 18 40  1  0  0  0  0
 19 23  2  0  0  0  0
 19 24  1  0  0  0  0
 20 21  1  0  0  0  0
 20 41  1  0  0  0  0
 20 42  1  0  0  0  0
 21 22  1  0  0  0  0
 22 25  1  0  0  0  0
 22 43  1  0  0  0  0
 22 44  1  0  0  0  0
 24 45  1  0  0  0  0
 25 26  1  0  0  0  0
 25 46  1  0  0  0  0
 25 47  1  0  0  0  0
 26 27  1  0  0  0  0
 26 28  2  0  0  0  0
M  CHG  1  27  -1
M  END
> <rseq>
1

> <mseq>
179

> <S>
-6.448377

> <rmsd_refine>
0.7128018

> <E_conf>
-107.569

> <E_score1>
-9.938444

> <E_refine>
-34.22415

> <E_score2>
-6.448377

>  <$File>
outputs/pdb_4j58_cleaned.pdb_2024_06_17__22_47_40_V2_BS398_MIN1_/SDF/sdf_db.sdf

> <Rec_index>
1

>  <PLIF_raw>
[[28,27,28,28],[823,823,823,829],[54,54,54,54],[2,7,7,7],[1.7,3.269808591,4.437362582,1.690938691]]

> <FP:PLIF>
6 19 1 16

>  <PLIF_ligidx>
[28,28,[27,28,28],28]

$$$$
179
  MOE2022           3D

 52 54  0  0  1  0  0  0  0  0999 V2000
    8.6680   21.1190   18.3160 C   0  0  0  0  0  0  0  0  0  0  0  0
    8.4680   22.2690   17.5590 C   0  0  0  0  0  0  0  0  0  0  0  0
    7.5870   20.3200   18.6640 C   0  0  0  0  0  0  0  0  0  0  0  0
    7.1830   22.6330   17.1700 C   0  0  0  0  0  0  0  0  0  0  0  0
    6.2890   20.6690   18.2710 C   0  0  0  0  0  0  0  0  0  0  0  0
    6.0970   21.8430   17.5310 C   0  0  0  0  0  0  0  0  0  0  0  0
    5.1720   19.8310   18.7000 C   0  0  0  0  0  0  0  0  0  0  0  0
    4.2690   19.2760   17.7920 N   0  0  0  0  0  0  0  0  0  0  0  0
    4.2190   19.6320   16.3690 C   0  0  0  0  0  0  0  0  0  0  0  0
    5.0300   19.5830   19.8920 O   0  0  0  0  0  0  0  0  0  0  0  0
    3.0700   18.5510   18.2500 C   0  0  0  0  0  0  0  0  0  0  0  0
    3.7260   18.4850   15.4710 C   0  0  0  0  0  0  0  0  0  0  0  0
    2.4430   17.8940   15.9170 N   0  0  0  0  0  0  0  0  0  0  0  0
    2.0360   16.7640   15.0180 C   0  0  2  0  0  0  0  0  0  0  0  0
    2.6070   17.4310   17.3100 C   0  0  0  0  0  0  0  0  0  0  0  0
    1.9700   17.1820   13.5400 C   0  0  0  0  0  0  0  0  0  0  0  0
    0.6970   16.1140   15.4230 C   0  0  0  0  0  0  0  0  0  0  0  0
    0.9990   17.7770   13.0670 O   0  0  0  0  0  0  0  0  0  0  0  0
    0.3760   15.0370   14.5650 O   0  0  0  0  0  0  0  0  0  0  0  0
    3.0050   16.8270   12.7690 O   0  0  0  0  0  0  0  0  0  0  0  0
    2.9660   16.9100   11.3270 C   0  0  0  0  0  0  0  0  0  0  0  0
    4.0180   16.0220   10.6950 C   0  0  0  0  0  0  0  0  0  0  0  0
    4.8720   16.5370    9.7230 C   0  0  0  0  0  0  0  0  0  0  0  0
    5.8530   15.7330    9.1470 C   0  0  0  0  0  0  0  0  0  0  0  0
    4.1580   14.6790   11.0640 C   0  0  0  0  0  0  0  0  0  0  0  0
    3.3170   14.1240   11.9870 O   0  0  0  0  0  0  0  0  0  0  0  0
    5.1460   13.8720   10.5070 C   0  0  0  0  0  0  0  0  0  0  0  0
    5.9930   14.4050    9.5440 C   0  0  0  0  0  0  0  0  0  0  0  0
    9.6440   20.8530   18.6290 H   0  0  0  0  0  0  0  0  0  0  0  0
    9.2950   22.8680   17.2850 H   0  0  0  0  0  0  0  0  0  0  0  0
    7.7480   19.4450   19.2390 H   0  0  0  0  0  0  0  0  0  0  0  0
    7.0320   23.5160   16.6040 H   0  0  0  0  0  0  0  0  0  0  0  0
    5.1190   22.1390   17.2500 H   0  0  0  0  0  0  0  0  0  0  0  0
    3.5640   20.4830   16.2420 H   0  0  0  0  0  0  0  0  0  0  0  0
    5.1900   19.9430   16.0160 H   0  0  0  0  0  0  0  0  0  0  0  0
    3.2180   18.1270   19.2340 H   0  0  0  0  0  0  0  0  0  0  0  0
    2.2570   19.2570   18.3360 H   0  0  0  0  0  0  0  0  0  0  0  0
    3.6350   18.8600   14.4620 H   0  0  0  0  0  0  0  0  0  0  0  0
    4.4760   17.7110   15.4530 H   0  0  0  0  0  0  0  0  0  0  0  0
    2.8080   15.9980   15.1080 H   0  0  0  0  0  0  0  0  0  0  0  0
    3.3030   16.6050   17.3410 H   0  0  0  0  0  0  0  0  0  0  0  0
    1.6690   17.0570   17.6920 H   0  0  0  0  0  0  0  0  0  0  0  0
    0.7590   15.7190   16.4340 H   0  0  0  0  0  0  0  0  0  0  0  0
   -0.0990   16.8600   15.3840 H   0  0  0  0  0  0  0  0  0  0  0  0
    0.1590   15.3880   13.6970 H   0  0  0  0  0  0  0  0  0  0  0  0
    1.9870   16.6100   10.9780 H   0  0  0  0  0  0  0  0  0  0  0  0
    3.1000   17.9430   11.0340 H   0  0  0  0  0  0  0  0  0  0  0  0
    4.7780   17.5460    9.4140 H   0  0  0  0  0  0  0  0  0  0  0  0
    6.4900   16.1330    8.4030 H   0  0  0  0  0  0  0  0  0  0  0  0
    3.6270   13.2310   12.2430 H   0  0  0  0  0  0  0  0  0  0  0  0
    5.2490   12.8610   10.8090 H   0  0  0  0  0  0  0  0  0  0  0  0
    6.7390   13.7960    9.1070 H   0  0  0  0  0  0  0  0  0  0  0  0
  1  2  2  0  0  0  0
  1  3  1  0  0  0  0
  1 29  1  0  0  0  0
  2  4  1  0  0  0  0
  2 30  1  0  0  0  0
  3  5  2  0  0  0  0
  3 31  1  0  0  0  0
  4  6  2  0  0  0  0
  4 32  1  0  0  0  0
  5  6  1  0  0  0  0
  5  7  1  0  0  0  0
  6 33  1  0  0  0  0
  7  8  1  0  0  0  0
  7 10  2  0  0  0  0
  8  9  1  0  0  0  0
  8 11  1  0  0  0  0
  9 12  1  0  0  0  0
  9 34  1  0  0  0  0
  9 35  1  0  0  0  0
 11 15  1  0  0  0  0
 11 36  1  0  0  0  0
 11 37  1  0  0  0  0
 12 13  1  0  0  0  0
 12 38  1  0  0  0  0
 12 39  1  0  0  0  0
 13 14  1  0  0  0  0
 13 15  1  0  0  0  0
 14 16  1  0  0  0  0
 14 17  1  0  0  0  0
 14 40  1  0  0  0  0
 15 41  1  0  0  0  0
 15 42  1  0  0  0  0
 16 18  2  0  0  0  0
 16 20  1  0  0  0  0
 17 19  1  0  0  0  0
 17 43  1  0  0  0  0
 17 44  1  0  0  0  0
 19 45  1  0  0  0  0
 20 21  1  0  0  0  0
 21 22  1  0  0  0  0
 21 46  1  0  0  0  0
 21 47  1  0  0  0  0
 22 23  2  0  0  0  0
 22 25  1  0  0  0  0
 23 24  1  0  0  0  0
 23 48  1  0  0  0  0
 24 28  2  0  0  0  0
 24 49  1  0  0  0  0
 25 26  1  0  0  0  0
 25 27  2  0  0  0  0
 26 50  1  0  0  0  0
 27 28  1  0  0  0  0
 27 51  1  0  0  0  0
 28 52  1  0  0  0  0
M  END
> <rseq>
1

> <mseq>
180

> <S>
-6.429311

> <rmsd_refine>
1.152664

> <E_conf>
105.5889

> <E_score1>
-9.062872

> <E_refine>
-36.25595

> <E_score2>
-6.429311

>  <$File>
outputs/pdb_4j58_cleaned.pdb_2024_06_17__22_47_40_V2_BS398_MIN1_/SDF/sdf_db.sdf

> <Rec_index>
1

>  <PLIF_raw>
[[26,10,22,25,27,28,24,23],[1056,1499,823,823,823,823,823,823],[70,101,54,54,54,54,54,54],[3,4,10,10,10,10,10,10],[2,3,0.6,0.6,0.6,0.6,0.6,0.6]]

> <FP:PLIF>
2 3 4 11 12

>  <PLIF_ligidx>
[[22,25,27,28,24,23],26,26,10,10]

$$$$
192
  MOE2022           3D

 48 50  0  0  1  0  0  0  0  0999 V2000
    3.3200   17.2730   19.4860 O   0  0  0  0  0  0  0  0  0  0  0  0
    2.3100   17.4450   18.8080 C   0  0  0  0  0  0  0  0  0  0  0  0
    2.3260   18.3520   17.7770 N   0  0  0  0  0  0  0  0  0  0  0  0
    1.0630   16.7260   19.0470 C   0  0  0  0  0  0  0  0  0  0  0  0
    0.2920   16.2600   17.9730 C   0  0  0  0  0  0  0  0  0  0  0  0
   -0.9000   15.5830   18.2010 C   0  0  0  0  0  0  0  0  0  0  0  0
    0.6180   16.4860   20.3530 C   0  0  0  0  0  0  0  0  0  0  0  0
    3.5400   18.8160   17.0870 C   0  0  1  0  0  0  0  0  0  0  0  0
   -0.5890   15.8330   20.5760 C   0  0  0  0  0  0  0  0  0  0  0  0
   -1.3450   15.3740   19.5020 C   0  0  0  0  0  0  0  0  0  0  0  0
    3.3670   18.6200   15.5770 C   0  0  0  0  0  0  0  0  0  0  0  0
    3.3020   17.3250   15.0340 C   0  0  0  0  0  0  0  0  0  0  0  0
    3.4620   16.2260   15.8380 O   0  0  0  0  0  0  0  0  0  0  0  0
    3.0640   17.1070   13.6790 C   0  0  0  0  0  0  0  0  0  0  0  0
    2.8900   18.2080   12.8470 C   0  0  0  0  0  0  0  0  0  0  0  0
    4.0000   20.2050   17.5270 C   0  0  0  0  0  0  0  0  0  0  0  0
    2.5690   18.0320   11.5250 O   0  0  0  0  0  0  0  0  0  0  0  0
    3.2150   19.7050   14.7050 C   0  0  0  0  0  0  0  0  0  0  0  0
    2.9800   19.5050   13.3470 C   0  0  0  0  0  0  0  0  0  0  0  0
    3.5620   17.7500   10.5090 C   0  0  0  0  0  0  0  0  0  0  0  0
    5.2070   20.3400   17.8360 O   0  0  0  0  0  0  0  0  0  0  0  0
    3.1680   21.1410   17.5390 O   0  5  0  0  0  0  0  0  0  0  0  0
    3.9350   16.2840   10.4060 C   0  0  0  0  0  0  0  0  0  0  0  0
    5.1520   15.9630   10.2810 N   0  0  0  0  0  0  0  0  0  0  0  0
    5.5810   14.6130   10.1550 C   0  0  0  0  0  0  0  0  0  0  0  0
    4.5720   13.4840   10.1330 C   0  0  0  0  0  0  0  0  0  0  0  0
    2.8130   15.2520   10.3980 C   0  0  0  0  0  0  0  0  0  0  0  0
    3.2810   13.8670   10.8600 C   0  0  0  0  0  0  0  0  0  0  0  0
    6.7570   14.3820   10.0550 O   0  0  0  0  0  0  0  0  0  0  0  0
    1.4350   18.5870   17.3170 H   0  0  0  0  0  0  0  0  0  0  0  0
    0.6200   16.4160   16.9770 H   0  0  0  0  0  0  0  0  0  0  0  0
   -1.4740   15.2300   17.3830 H   0  0  0  0  0  0  0  0  0  0  0  0
    1.1960   16.8190   21.1750 H   0  0  0  0  0  0  0  0  0  0  0  0
    4.3460   18.1620   17.3640 H   0  0  0  0  0  0  0  0  0  0  0  0
   -0.9420   15.6960   21.5620 H   0  0  0  0  0  0  0  0  0  0  0  0
   -2.2600   14.8690   19.6740 H   0  0  0  0  0  0  0  0  0  0  0  0
    3.3150   15.4030   15.3320 H   0  0  0  0  0  0  0  0  0  0  0  0
    3.0010   16.1230   13.2920 H   0  0  0  0  0  0  0  0  0  0  0  0
    3.2610   20.6980   15.0680 H   0  0  0  0  0  0  0  0  0  0  0  0
    2.8520   20.3340   12.7000 H   0  0  0  0  0  0  0  0  0  0  0  0
    3.1600   18.0800    9.5610 H   0  0  0  0  0  0  0  0  0  0  0  0
    4.4340   18.3630   10.6910 H   0  0  0  0  0  0  0  0  0  0  0  0
    4.3470   13.2450    9.1030 H   0  0  0  0  0  0  0  0  0  0  0  0
    5.0000   12.5860   10.5590 H   0  0  0  0  0  0  0  0  0  0  0  0
    1.9880   15.5700   11.0200 H   0  0  0  0  0  0  0  0  0  0  0  0
    2.4080   15.1840    9.3970 H   0  0  0  0  0  0  0  0  0  0  0  0
    2.5070   13.1210   10.6750 H   0  0  0  0  0  0  0  0  0  0  0  0
    3.4820   13.9100   11.9310 H   0  0  0  0  0  0  0  0  0  0  0  0
  1  2  2  0  0  0  0
  2  3  1  0  0  0  0
  2  4  1  0  0  0  0
  3  8  1  0  0  0  0
  3 30  1  0  0  0  0
  4  5  2  0  0  0  0
  4  7  1  0  0  0  0
  5  6  1  0  0  0  0
  5 31  1  0  0  0  0
  6 10  2  0  0  0  0
  6 32  1  0  0  0  0
  7  9  2  0  0  0  0
  7 33  1  0  0  0  0
  8 11  1  0  0  0  0
  8 16  1  0  0  0  0
  8 34  1  0  0  0  0
  9 10  1  0  0  0  0
  9 35  1  0  0  0  0
 10 36  1  0  0  0  0
 11 12  1  0  0  0  0
 11 18  2  0  0  0  0
 12 13  1  0  0  0  0
 12 14  2  0  0  0  0
 13 37  1  0  0  0  0
 14 15  1  0  0  0  0
 14 38  1  0  0  0  0
 15 17  1  0  0  0  0
 15 19  2  0  0  0  0
 16 21  2  0  0  0  0
 16 22  1  0  0  0  0
 17 20  1  0  0  0  0
 18 19  1  0  0  0  0
 18 39  1  0  0  0  0
 19 40  1  0  0  0  0
 20 23  1  0  0  0  0
 20 41  1  0  0  0  0
 20 42  1  0  0  0  0
 23 24  2  0  0  0  0
 23 27  1  0  0  0  0
 24 25  1  0  0  0  0
 25 26  1  0  0  0  0
 25 29  2  0  0  0  0
 26 28  1  0  0  0  0
 26 43  1  0  0  0  0
 26 44  1  0  0  0  0
 27 28  1  0  0  0  0
 27 45  1  0  0  0  0
 27 46  1  0  0  0  0
 28 47  1  0  0  0  0
 28 48  1  0  0  0  0
M  CHG  1  22  -1
M  END
> <rseq>
1

> <mseq>
193

> <S>
-6.040431

> <rmsd_refine>
1.194281

> <E_conf>
-35.28021

> <E_score1>
-11.15552

> <E_refine>
-34.19526

> <E_score2>
-6.040431

>  <$File>
outputs/pdb_4j58_cleaned.pdb_2024_06_17__22_47_40_V2_BS398_MIN1_/SDF/sdf_db.sdf

> <Rec_index>
1

>  <PLIF_raw>
[[24,4,7,9,10,6,5],[823,1519,1519,1519,1519,1519,1519],[54,102,102,102,102,102,102],[2,10,10,10,10,10,10],[0.7,0.8,0.8,0.8,0.8,0.8,0.8]]

> <FP:PLIF>
6 22

>  <PLIF_ligidx>
[24,[4,7,9,10,6,5]]

$$$$
193
  MOE2022           3D

 54 56  0  0  1  0  0  0  0  0999 V2000
    7.0020   21.0590   19.1380 C   0  0  0  0  0  0  0  0  0  0  0  0
    6.4840   22.3050   18.7980 C   0  0  0  0  0  0  0  0  0  0  0  0
    6.1990   19.9270   19.0630 C   0  0  0  0  0  0  0  0  0  0  0  0
    5.1590   22.4170   18.3850 C   0  0  0  0  0  0  0  0  0  0  0  0
    4.8650   20.0250   18.6460 C   0  0  0  0  0  0  0  0  0  0  0  0
    4.3530   21.2860   18.3110 C   0  0  0  0  0  0  0  0  0  0  0  0
    4.0140   18.8340   18.5980 C   0  0  0  0  0  0  0  0  0  0  0  0
    3.2870   18.5220   17.4540 N   0  0  0  0  0  0  0  0  0  0  0  0
    3.9190   18.8220   16.1530 C   0  0  0  0  0  0  0  0  0  0  0  0
    3.9310   18.0850   19.5660 O   0  0  0  0  0  0  0  0  0  0  0  0
    2.2860   17.4060   17.4770 C   0  0  1  0  0  0  0  0  0  0  0  0
    1.3780   17.5490   18.6150 N   0  0  0  0  0  0  0  0  0  0  0  0
    1.4980   17.2620   16.1510 C   0  0  0  0  0  0  0  0  0  0  0  0
    2.3600   17.3260   14.9570 N   0  0  0  0  0  0  0  0  0  0  0  0
    1.5810   17.1050   13.7260 C   0  0  0  0  0  0  0  0  0  0  0  0
    0.7170   16.4780   19.1510 C   0  0  0  0  0  0  0  0  0  0  0  0
    3.0090   18.6380   14.9380 C   0  0  0  0  0  0  0  0  0  0  0  0
    2.4830   16.8310   12.5260 C   0  0  0  0  0  0  0  0  0  0  0  0
    2.7940   17.7590   11.5690 C   0  0  0  0  0  0  0  0  0  0  0  0
    0.3980   15.4780   18.5150 O   0  0  0  0  0  0  0  0  0  0  0  0
    0.4220   16.5950   20.4710 N   0  0  0  0  0  0  0  0  0  0  0  0
    2.2630   19.1920   11.5460 C   0  0  0  0  0  0  0  0  0  0  0  0
    3.0860   15.5220   12.4140 C   0  0  0  0  0  0  0  0  0  0  0  0
    2.8660   14.5610   13.3170 N   0  0  0  0  0  0  0  0  0  0  0  0
    3.6560   17.4160   10.5290 N   0  0  0  0  0  0  0  0  0  0  0  0
    3.9640   18.3790    9.4460 C   0  0  0  0  0  0  0  0  0  0  0  0
    3.9300   15.2280   11.4210 N   0  0  0  0  0  0  0  0  0  0  0  0
    4.2550   16.1470   10.4740 C   0  0  0  0  0  0  0  0  0  0  0  0
    5.1010   15.8700    9.6250 O   0  0  0  0  0  0  0  0  0  0  0  0
    8.0110   20.9740   19.4530 H   0  0  0  0  0  0  0  0  0  0  0  0
    7.0980   23.1660   18.8520 H   0  0  0  0  0  0  0  0  0  0  0  0
    6.6040   18.9850   19.3230 H   0  0  0  0  0  0  0  0  0  0  0  0
    4.7640   23.3660   18.1280 H   0  0  0  0  0  0  0  0  0  0  0  0
    3.3430   21.3800   18.0050 H   0  0  0  0  0  0  0  0  0  0  0  0
    4.3180   19.8260   16.1300 H   0  0  0  0  0  0  0  0  0  0  0  0
    4.7670   18.1680   16.0290 H   0  0  0  0  0  0  0  0  0  0  0  0
    2.8420   16.4870   17.6120 H   0  0  0  0  0  0  0  0  0  0  0  0
    1.6570   18.2880   19.2760 H   0  0  0  0  0  0  0  0  0  0  0  0
    0.9650   16.3210   16.1550 H   0  0  0  0  0  0  0  0  0  0  0  0
    0.7450   18.0370   16.0940 H   0  0  0  0  0  0  0  0  0  0  0  0
    0.9320   16.2510   13.8690 H   0  0  0  0  0  0  0  0  0  0  0  0
    0.9030   17.9290   13.5570 H   0  0  0  0  0  0  0  0  0  0  0  0
    2.2610   19.4200   14.9150 H   0  0  0  0  0  0  0  0  0  0  0  0
    3.6050   18.7450   14.0430 H   0  0  0  0  0  0  0  0  0  0  0  0
    0.5860   17.4960   20.9420 H   0  0  0  0  0  0  0  0  0  0  0  0
   -0.2680   15.9470   20.8750 H   0  0  0  0  0  0  0  0  0  0  0  0
    3.0650   19.9140   11.4850 H   0  0  0  0  0  0  0  0  0  0  0  0
    1.6060   19.3520   10.7020 H   0  0  0  0  0  0  0  0  0  0  0  0
    1.7000   19.4660   12.4230 H   0  0  0  0  0  0  0  0  0  0  0  0
    3.3290   13.6680   13.2100 H   0  0  0  0  0  0  0  0  0  0  0  0
    2.2760   14.7420   14.1150 H   0  0  0  0  0  0  0  0  0  0  0  0
    3.0650   18.7740    8.9940 H   0  0  0  0  0  0  0  0  0  0  0  0
    4.5420   19.2170    9.8110 H   0  0  0  0  0  0  0  0  0  0  0  0
    4.5320   17.9480    8.6330 H   0  0  0  0  0  0  0  0  0  0  0  0
  1  2  2  0  0  0  0
  1  3  1  0  0  0  0
  1 30  1  0  0  0  0
  2  4  1  0  0  0  0
  2 31  1  0  0  0  0
  3  5  2  0  0  0  0
  3 32  1  0  0  0  0
  4  6  2  0  0  0  0
  4 33  1  0  0  0  0
  5  6  1  0  0  0  0
  5  7  1  0  0  0  0
  6 34  1  0  0  0  0
  7  8  1  0  0  0  0
  7 10  2  0  0  0  0
  8  9  1  0  0  0  0
  8 11  1  0  0  0  0
  9 17  1  0  0  0  0
  9 35  1  0  0  0  0
  9 36  1  0  0  0  0
 11 12  1  0  0  0  0
 11 13  1  0  0  0  0
 11 37  1  0  0  0  0
 12 16  1  0  0  0  0
 12 38  1  0  0  0  0
 13 14  1  0  0  0  0
 13 39  1  0  0  0  0
 13 40  1  0  0  0  0
 14 15  1  0  0  0  0
 14 17  1  0  0  0  0
 15 18  1  0  0  0  0
 15 41  1  0  0  0  0
 15 42  1  0  0  0  0
 16 20  2  0  0  0  0
 16 21  1  0  0  0  0
 17 43  1  0  0  0  0
 17 44  1  0  0  0  0
 18 19  2  0  0  0  0
 18 23  1  0  0  0  0
 19 22  1  0  0  0  0
 19 25  1  0  0  0  0
 21 45  1  0  0  0  0
 21 46  1  0  0  0  0
 22 47  1  0  0  0  0
 22 48  1  0  0  0  0
 22 49  1  0  0  0  0
 23 24  1  0  0  0  0
 23 27  2  0  0  0  0
 24 50  1  0  0  0  0
 24 51  1  0  0  0  0
 25 26  1  0  0  0  0
 25 28  1  0  0  0  0
 26 52  1  0  0  0  0
 26 53  1  0  0  0  0
 26 54  1  0  0  0  0
 27 28  1  0  0  0  0
 28 29  2  0  0  0  0
M  END
> <rseq>
1

> <mseq>
194

> <S>
-5.977328

> <rmsd_refine>
0.9479826

> <E_conf>
-215.4066

> <E_score1>
-9.274151

> <E_refine>
-30.82254

> <E_score2>
-5.977328

>  <$File>
outputs/pdb_4j58_cleaned.pdb_2024_06_17__22_47_40_V2_BS398_MIN1_/SDF/sdf_db.sdf

> <Rec_index>
1

>  <PLIF_raw>
[[12,24],[1504,1056],[101,70],[3,3],[0.5,2.4]]

> <FP:PLIF>
3 4 8

>  <PLIF_ligidx>
[24,24,12]

$$$$
194
  MOE2022           3D

 48 50  0  0  1  0  0  0  0  0999 V2000
    2.9840   16.9100   19.8280 O   0  0  0  0  0  0  0  0  0  0  0  0
    1.9470   17.1570   19.2190 C   0  0  0  0  0  0  0  0  0  0  0  0
    1.9480   18.1010   18.2210 N   0  0  0  0  0  0  0  0  0  0  0  0
    0.6860   16.4770   19.4830 C   0  0  0  0  0  0  0  0  0  0  0  0
   -0.0190   15.8710   18.4350 C   0  0  0  0  0  0  0  0  0  0  0  0
   -1.2420   15.2530   18.6710 C   0  0  0  0  0  0  0  0  0  0  0  0
    0.1500   16.4310   20.7760 C   0  0  0  0  0  0  0  0  0  0  0  0
    3.1510   18.6190   17.5420 C   0  0  1  0  0  0  0  0  0  0  0  0
   -1.0910   15.8460   21.0010 C   0  0  0  0  0  0  0  0  0  0  0  0
   -1.7830   15.2480   19.9530 C   0  0  0  0  0  0  0  0  0  0  0  0
    3.1300   18.1770   16.0750 C   0  0  0  0  0  0  0  0  0  0  0  0
    3.1660   16.8130   15.7490 C   0  0  0  0  0  0  0  0  0  0  0  0
    3.2870   15.8650   16.7190 O   0  0  0  0  0  0  0  0  0  0  0  0
    3.0780   16.3670   14.4370 C   0  0  0  0  0  0  0  0  0  0  0  0
    2.9750   17.3040   13.4190 C   0  0  0  0  0  0  0  0  0  0  0  0
    3.3650   20.1150   17.7580 C   0  0  0  0  0  0  0  0  0  0  0  0
    2.8820   16.8280   12.1380 O   0  0  0  0  0  0  0  0  0  0  0  0
    3.0380   19.0980   15.0230 C   0  0  0  0  0  0  0  0  0  0  0  0
    2.9640   18.6700   13.7000 C   0  0  0  0  0  0  0  0  0  0  0  0
    3.3340   17.5270   10.9620 C   0  0  0  0  0  0  0  0  0  0  0  0
    4.5080   20.4860   18.1110 O   0  0  0  0  0  0  0  0  0  0  0  0
    2.4050   20.8920   17.5490 O   0  5  0  0  0  0  0  0  0  0  0  0
    3.9260   16.5490    9.9780 C   0  0  0  0  0  0  0  0  0  0  0  0
    5.1740   16.4360    9.8960 N   0  0  0  0  0  0  0  0  0  0  0  0
    5.8580   15.4690    9.0400 C   0  0  2  0  0  0  0  0  0  0  0  0
    4.9400   14.6310    8.1750 C   0  0  0  0  0  0  0  0  0  0  0  0
    2.9450   15.6930    9.1920 C   0  0  0  0  0  0  0  0  0  0  0  0
    3.6080   14.7300    8.2390 C   0  0  0  0  0  0  0  0  0  0  0  0
    6.6250   14.6220    9.8950 O   0  0  0  0  0  0  0  0  0  0  0  0
    1.0460   18.3750   17.8030 H   0  0  0  0  0  0  0  0  0  0  0  0
    0.3810   15.8800   17.4530 H   0  0  0  0  0  0  0  0  0  0  0  0
   -1.7650   14.7940   17.8730 H   0  0  0  0  0  0  0  0  0  0  0  0
    0.6790   16.8680   21.5810 H   0  0  0  0  0  0  0  0  0  0  0  0
    4.0150   18.1470   17.9800 H   0  0  0  0  0  0  0  0  0  0  0  0
   -1.5180   15.8640   21.9700 H   0  0  0  0  0  0  0  0  0  0  0  0
   -2.7240   14.7930   20.1280 H   0  0  0  0  0  0  0  0  0  0  0  0
    3.1780   16.2610   17.6070 H   0  0  0  0  0  0  0  0  0  0  0  0
    3.0920   15.3300   14.2170 H   0  0  0  0  0  0  0  0  0  0  0  0
    3.0130   20.1390   15.2160 H   0  0  0  0  0  0  0  0  0  0  0  0
    2.8840   19.3820   12.9210 H   0  0  0  0  0  0  0  0  0  0  0  0
    2.4990   18.0590   10.5290 H   0  0  0  0  0  0  0  0  0  0  0  0
    4.0720   18.2650   11.2450 H   0  0  0  0  0  0  0  0  0  0  0  0
    6.5490   16.0130    8.4120 H   0  0  0  0  0  0  0  0  0  0  0  0
    5.4070   13.9520    7.5100 H   0  0  0  0  0  0  0  0  0  0  0  0
    2.3220   15.1390    9.8810 H   0  0  0  0  0  0  0  0  0  0  0  0
    2.2710   16.3340    8.6420 H   0  0  0  0  0  0  0  0  0  0  0  0
    2.9730   14.1370    7.6320 H   0  0  0  0  0  0  0  0  0  0  0  0
    7.0720   13.9410    9.3700 H   0  0  0  0  0  0  0  0  0  0  0  0
  1  2  2  0  0  0  0
  2  3  1  0  0  0  0
  2  4  1  0  0  0  0
  3  8  1  0  0  0  0
  3 30  1  0  0  0  0
  4  5  2  0  0  0  0
  4  7  1  0  0  0  0
  5  6  1  0  0  0  0
  5 31  1  0  0  0  0
  6 10  2  0  0  0  0
  6 32  1  0  0  0  0
  7  9  2  0  0  0  0
  7 33  1  0  0  0  0
  8 11  1  0  0  0  0
  8 16  1  0  0  0  0
  8 34  1  0  0  0  0
  9 10  1  0  0  0  0
  9 35  1  0  0  0  0
 10 36  1  0  0  0  0
 11 12  1  0  0  0  0
 11 18  2  0  0  0  0
 12 13  1  0  0  0  0
 12 14  2  0  0  0  0
 13 37  1  0  0  0  0
 14 15  1  0  0  0  0
 14 38  1  0  0  0  0
 15 17  1  0  0  0  0
 15 19  2  0  0  0  0
 16 21  2  0  0  0  0
 16 22  1  0  0  0  0
 17 20  1  0  0  0  0
 18 19  1  0  0  0  0
 18 39  1  0  0  0  0
 19 40  1  0  0  0  0
 20 23  1  0  0  0  0
 20 41  1  0  0  0  0
 20 42  1  0  0  0  0
 23 24  2  0  0  0  0
 23 27  1  0  0  0  0
 24 25  1  0  0  0  0
 25 26  1  0  0  0  0
 25 29  1  0  0  0  0
 25 43  1  0  0  0  0
 26 28  2  0  0  0  0
 26 44  1  0  0  0  0
 27 28  1  0  0  0  0
 27 45  1  0  0  0  0
 27 46  1  0  0  0  0
 28 47  1  0  0  0  0
 29 48  1  0  0  0  0
M  CHG  1  22  -1
M  END
> <rseq>
1

> <mseq>
195

> <S>
-6.122877

> <rmsd_refine>
1.438625

> <E_conf>
-52.92149

> <E_score1>
-11.65205

> <E_refine>
-33.02558

> <E_score2>
-6.122877

>  <$File>
outputs/pdb_4j58_cleaned.pdb_2024_06_17__22_47_40_V2_BS398_MIN1_/SDF/sdf_db.sdf

> <Rec_index>
1

>  <PLIF_raw>
[[24,4,7,9,10,6,5,4,7,9,10,6,5],[823,1212,1212,1212,1212,1212,1212,1519,1519,1519,1519,1519,1519],[54,81,81,81,81,81,81,102,102,102,102,102,102],[2,10,10,10,10,10,10,10,10,10,10,10,10],[2.6,0.5,0.5,0.5,0.5,0.5,0.5,0.5,0.5,0.5,0.5,0.5,0.5]]

> <FP:PLIF>
6 19 27 22

>  <PLIF_ligidx>
[24,24,[4,7,9,10,6,5],[4,7,9,10,6,5]]

$$$$
195
  MOE2022           3D

 46 50  0  0  1  0  0  0  0  0999 V2000
    5.0750   14.6900    8.5730 C   0  0  0  0  0  0  0  0  0  0  0  0
    5.1310   16.0010    8.1220 C   0  0  0  0  0  0  0  0  0  0  0  0
    4.4770   14.4320    9.7990 C   0  0  0  0  0  0  0  0  0  0  0  0
    5.6670   16.2440    6.9100 F   0  0  0  0  0  0  0  0  0  0  0  0
    3.9350   15.4740   10.5700 C   0  0  0  0  0  0  0  0  0  0  0  0
    3.2360   15.1670   11.8020 C   0  0  0  0  0  0  0  0  0  0  0  0
    4.6370   17.0610    8.8720 C   0  0  0  0  0  0  0  0  0  0  0  0
    4.0470   16.7950   10.1020 C   0  0  0  0  0  0  0  0  0  0  0  0
    3.1580   16.0230   12.8950 N   0  0  0  0  0  0  0  0  0  0  0  0
    2.5290   14.0410   12.1440 C   0  0  0  0  0  0  0  0  0  0  0  0
    2.4290   15.4220   13.8850 C   0  0  0  0  0  0  0  0  0  0  0  0
    2.1570   15.9980   15.1350 N   0  0  0  0  0  0  0  0  0  0  0  0
    2.0220   14.2030   13.4310 C   0  0  0  0  0  0  0  0  0  0  0  0
    0.9620   16.8280   15.1420 C   0  0  0  0  0  0  0  0  0  0  0  0
    3.1920   16.8200   15.7760 C   0  0  0  0  0  0  0  0  0  0  0  0
    2.5390   18.0540   16.4450 C   0  0  2  0  0  0  0  0  0  0  0  0
    3.3460   18.3770   17.7210 C   0  0  0  0  0  0  0  0  0  0  0  0
    1.0190   17.6470   16.4330 C   0  0  2  0  0  0  0  0  0  0  0  0
    2.6750   19.2860   15.5370 C   0  0  0  0  0  0  0  0  0  0  0  0
    3.2970   19.2070   14.4510 O   0  5  0  0  0  0  0  0  0  0  0  0
    2.1490   20.3460   15.9440 O   0  0  0  0  0  0  0  0  0  0  0  0
    3.1380   17.8550   18.9490 O   0  0  0  0  0  0  0  0  0  0  0  0
    4.3950   19.0140   17.6380 O   0  0  0  0  0  0  0  0  0  0  0  0
    1.9370   17.2730   19.4320 C   0  0  2  0  0  0  0  0  0  0  0  0
    2.0790   16.6510   20.7410 O   0  0  0  0  0  0  0  0  0  0  0  0
    1.2630   15.5540   20.7720 N   0  0  0  0  0  0  0  0  0  0  0  0
    0.8510   15.2980   19.6100 C   0  0  0  0  0  0  0  0  0  0  0  0
    1.3910   16.1990   18.5500 C   0  0  1  0  0  0  0  0  0  0  0  0
    0.3930   16.8010   17.5710 C   0  0  0  0  0  0  0  0  0  0  0  0
    5.4710   13.9000    7.9880 H   0  0  0  0  0  0  0  0  0  0  0  0
    4.4210   13.4340   10.1510 H   0  0  0  0  0  0  0  0  0  0  0  0
    4.7020   18.0540    8.5070 H   0  0  0  0  0  0  0  0  0  0  0  0
    3.6580   17.5950   10.6780 H   0  0  0  0  0  0  0  0  0  0  0  0
    3.5700   16.9690   12.9630 H   0  0  0  0  0  0  0  0  0  0  0  0
    2.3900   13.1930   11.5260 H   0  0  0  0  0  0  0  0  0  0  0  0
    1.4360   13.5170   13.9770 H   0  0  0  0  0  0  0  0  0  0  0  0
    0.9740   17.4920   14.2860 H   0  0  0  0  0  0  0  0  0  0  0  0
    0.0640   16.2330   15.0500 H   0  0  0  0  0  0  0  0  0  0  0  0
    3.6800   16.2070   16.5180 H   0  0  0  0  0  0  0  0  0  0  0  0
    3.9800   17.0940   15.0950 H   0  0  0  0  0  0  0  0  0  0  0  0
    0.3920   18.5290   16.2910 H   0  0  0  0  0  0  0  0  0  0  0  0
    1.2040   18.0610   19.5360 H   0  0  0  0  0  0  0  0  0  0  0  0
    0.2070   14.4850   19.3950 H   0  0  0  0  0  0  0  0  0  0  0  0
    2.1980   15.6870   18.0530 H   0  0  0  0  0  0  0  0  0  0  0  0
   -0.3080   17.4300   18.1190 H   0  0  0  0  0  0  0  0  0  0  0  0
   -0.1980   15.9830   17.1560 H   0  0  0  0  0  0  0  0  0  0  0  0
  1  2  2  0  0  0  0
  1  3  1  0  0  0  0
  1 30  1  0  0  0  0
  2  4  1  0  0  0  0
  2  7  1  0  0  0  0
  3  5  2  0  0  0  0
  3 31  1  0  0  0  0
  5  6  1  0  0  0  0
  5  8  1  0  0  0  0
  6  9  1  0  0  0  0
  6 10  2  0  0  0  0
  7  8  2  0  0  0  0
  7 32  1  0  0  0  0
  8 33  1  0  0  0  0
  9 11  1  0  0  0  0
  9 34  1  0  0  0  0
 10 13  1  0  0  0  0
 10 35  1  0  0  0  0
 11 12  1  0  0  0  0
 11 13  2  0  0  0  0
 12 14  1  0  0  0  0
 12 15  1  0  0  0  0
 13 36  1  0  0  0  0
 14 18  1  0  0  0  0
 14 37  1  0  0  0  0
 14 38  1  0  0  0  0
 15 16  1  0  0  0  0
 15 39  1  0  0  0  0
 15 40  1  0  0  0  0
 16 17  1  0  0  0  0
 16 18  1  0  0  0  0
 16 19  1  0  0  0  0
 17 22  1  0  0  0  0
 17 23  2  0  0  0  0
 18 29  1  0  0  0  0
 18 41  1  0  0  0  0
 19 20  1  0  0  0  0
 19 21  2  0  0  0  0
 22 24  1  0  0  0  0
 24 25  1  0  0  0  0
 24 28  1  0  0  0  0
 24 42  1  0  0  0  0
 25 26  1  0  0  0  0
 26 27  2  0  0  0  0
 27 28  1  0  0  0  0
 27 43  1  0  0  0  0
 28 29  1  0  0  0  0
 28 44  1  0  0  0  0
 29 45  1  0  0  0  0
 29 46  1  0  0  0  0
M  CHG  1  20  -1
M  END
> <rseq>
1

> <mseq>
196

> <S>
-6.097278

> <rmsd_refine>
1.388073

> <E_conf>
-66.25213

> <E_score1>
-11.07024

> <E_refine>
-28.45048

> <E_score2>
-6.097278

>  <$File>
outputs/pdb_4j58_cleaned.pdb_2024_06_17__22_47_40_V2_BS398_MIN1_/SDF/sdf_db.sdf

> <Rec_index>
1

>  <PLIF_raw>
[[26,20],[1212,826],[81,54],[2,7],[1.8,1.587337887]]

> <FP:PLIF>
1 17 18

>  <PLIF_ligidx>
[20,26,26]

$$$$
196
  MOE2022           3D

 52 53  0  0  1  0  0  0  0  0999 V2000
    5.3740   14.6890    9.9160 C   0  0  0  0  0  0  0  0  0  0  0  0
    4.5440   14.4730   11.0080 C   0  0  0  0  0  0  0  0  0  0  0  0
    3.6710   15.4840   11.4390 C   0  0  0  0  0  0  0  0  0  0  0  0
    6.2500   13.7040    9.5340 O   0  0  0  0  0  0  0  0  0  0  0  0
    3.6350   16.7000   10.7280 C   0  0  0  0  0  0  0  0  0  0  0  0
    2.8280   15.2780   12.6160 C   0  0  0  0  0  0  0  0  0  0  0  0
    2.4580   16.3870   13.3300 N   0  0  0  0  0  0  0  0  0  0  0  0
    2.4490   14.1750   13.0020 O   0  0  0  0  0  0  0  0  0  0  0  0
    5.3220   15.8980    9.2190 C   0  0  0  0  0  0  0  0  0  0  0  0
    1.5730   16.3880   14.5060 C   0  0  1  0  0  0  0  0  0  0  0  0
    2.3210   16.2730   15.8310 C   0  0  0  0  0  0  0  0  0  0  0  0
    0.6760   17.6210   14.5320 C   0  0  0  0  0  0  0  0  0  0  0  0
    3.5330   16.0460   15.8810 O   0  0  0  0  0  0  0  0  0  0  0  0
    0.6640   18.4370   13.6080 O   0  0  0  0  0  0  0  0  0  0  0  0
   -0.0370   17.8100   15.6590 N   0  0  0  0  0  0  0  0  0  0  0  0
    6.1100   16.1010    8.1300 O   0  0  0  0  0  0  0  0  0  0  0  0
    1.6030   16.5400   16.9440 N   0  0  0  0  0  0  0  0  0  0  0  0
    4.4550   16.9070    9.6240 C   0  0  0  0  0  0  0  0  0  0  0  0
    2.2880   16.7440   18.2250 C   0  0  1  0  0  0  0  0  0  0  0  0
    0.1970   16.9520   16.8190 C   0  0  0  0  0  0  0  0  0  0  0  0
    3.0510   18.0810   18.2390 C   0  0  0  0  0  0  0  0  0  0  0  0
   -0.8840   18.9900   15.8580 C   0  0  0  0  0  0  0  0  0  0  0  0
    1.3600   16.6580   19.3440 O   0  0  0  0  0  0  0  0  0  0  0  0
    1.9060   16.2520   20.6170 C   0  0  0  0  0  0  0  0  0  0  0  0
    2.2010   19.2030   17.8870 O   0  0  0  0  0  0  0  0  0  0  0  0
    2.6360   20.4160   17.5000 C   0  0  0  0  0  0  0  0  0  0  0  0
    1.7960   21.2830   17.2730 O   0  0  0  0  0  0  0  0  0  0  0  0
    4.1260   20.7450   17.3350 C   0  0  0  0  0  0  0  0  0  0  0  0
    4.8150   21.0620   18.6670 C   0  0  0  0  0  0  0  0  0  0  0  0
    4.5790   13.5480   11.5200 H   0  0  0  0  0  0  0  0  0  0  0  0
    6.1870   12.9410   10.1430 H   0  0  0  0  0  0  0  0  0  0  0  0
    2.9710   17.4720   11.0250 H   0  0  0  0  0  0  0  0  0  0  0  0
    2.7960   17.3090   13.0160 H   0  0  0  0  0  0  0  0  0  0  0  0
    0.9070   15.5350   14.4610 H   0  0  0  0  0  0  0  0  0  0  0  0
    6.6520   15.3030    7.9660 H   0  0  0  0  0  0  0  0  0  0  0  0
    4.4170   17.8230    9.0930 H   0  0  0  0  0  0  0  0  0  0  0  0
    3.0040   15.9430   18.3600 H   0  0  0  0  0  0  0  0  0  0  0  0
   -0.1250   17.4720   17.7120 H   0  0  0  0  0  0  0  0  0  0  0  0
   -0.4330   16.0750   16.7590 H   0  0  0  0  0  0  0  0  0  0  0  0
    3.4850   18.2530   19.2220 H   0  0  0  0  0  0  0  0  0  0  0  0
    3.8560   18.0230   17.5110 H   0  0  0  0  0  0  0  0  0  0  0  0
   -1.7290   18.7670   16.4960 H   0  0  0  0  0  0  0  0  0  0  0  0
   -0.3290   19.7930   16.3230 H   0  0  0  0  0  0  0  0  0  0  0  0
   -1.2830   19.3660   14.9250 H   0  0  0  0  0  0  0  0  0  0  0  0
    2.8020   16.8250   20.8500 H   0  0  0  0  0  0  0  0  0  0  0  0
    1.1660   16.4200   21.3990 H   0  0  0  0  0  0  0  0  0  0  0  0
    2.1540   15.1930   20.5920 H   0  0  0  0  0  0  0  0  0  0  0  0
    4.6420   19.9210   16.8440 H   0  0  0  0  0  0  0  0  0  0  0  0
    4.2150   21.6170   16.6860 H   0  0  0  0  0  0  0  0  0  0  0  0
    4.2960   21.8850   19.1600 H   0  0  0  0  0  0  0  0  0  0  0  0
    4.8010   20.1860   19.3160 H   0  0  0  0  0  0  0  0  0  0  0  0
    5.8500   21.3500   18.4830 H   0  0  0  0  0  0  0  0  0  0  0  0
  1  2  1  0  0  0  0
  1  4  1  0  0  0  0
  1  9  2  0  0  0  0
  2  3  2  0  0  0  0
  2 30  1  0  0  0  0
  3  5  1  0  0  0  0
  3  6  1  0  0  0  0
  4 31  1  0  0  0  0
  5 18  2  0  0  0  0
  5 32  1  0  0  0  0
  6  7  1  0  0  0  0
  6  8  2  0  0  0  0
  7 10  1  0  0  0  0
  7 33  1  0  0  0  0
  9 16  1  0  0  0  0
  9 18  1  0  0  0  0
 10 11  1  0  0  0  0
 10 12  1  0  0  0  0
 10 34  1  0  0  0  0
 11 13  2  0  0  0  0
 11 17  1  0  0  0  0
 12 14  2  0  0  0  0
 12 15  1  0  0  0  0
 15 20  1  0  0  0  0
 15 22  1  0  0  0  0
 16 35  1  0  0  0  0
 17 19  1  0  0  0  0
 17 20  1  0  0  0  0
 18 36  1  0  0  0  0
 19 21  1  0  0  0  0
 19 23  1  0  0  0  0
 19 37  1  0  0  0  0
 20 38  1  0  0  0  0
 20 39  1  0  0  0  0
 21 25  1  0  0  0  0
 21 40  1  0  0  0  0
 21 41  1  0  0  0  0
 22 42  1  0  0  0  0
 22 43  1  0  0  0  0
 22 44  1  0  0  0  0
 23 24  1  0  0  0  0
 24 45  1  0  0  0  0
 24 46  1  0  0  0  0
 24 47  1  0  0  0  0
 25 26  1  0  0  0  0
 26 27  2  0  0  0  0
 26 28  1  0  0  0  0
 28 29  1  0  0  0  0
 28 48  1  0  0  0  0
 28 49  1  0  0  0  0
 29 50  1  0  0  0  0
 29 51  1  0  0  0  0
 29 52  1  0  0  0  0
M  END
> <rseq>
1

> <mseq>
197

> <S>
-6.213278

> <rmsd_refine>
1.727446

> <E_conf>
-51.93017

> <E_score1>
-10.81348

> <E_refine>
-33.07263

> <E_score2>
-6.213278

>  <$File>
outputs/pdb_4j58_cleaned.pdb_2024_06_17__22_47_40_V2_BS398_MIN1_/SDF/sdf_db.sdf

> <Rec_index>
1

>  <PLIF_raw>
[13,954,62,2,1]

> <FP:PLIF>
20

>  <PLIF_ligidx>
13

$$$$
197
  MOE2022           3D

 52 54  0  0  0  0  0  0  0  0999 V2000
    8.5310   21.1020   18.3190 C   0  0  0  0  0  0  0  0  0  0  0  0
    8.3030   22.2730   17.6060 C   0  0  0  0  0  0  0  0  0  0  0  0
    7.4730   20.2480   18.6100 C   0  0  0  0  0  0  0  0  0  0  0  0
    6.1770   20.5610   18.1960 C   0  0  0  0  0  0  0  0  0  0  0  0
    5.9530   21.7480   17.4970 C   0  0  0  0  0  0  0  0  0  0  0  0
    5.0280   19.6260   18.5380 C   0  0  0  0  0  0  0  0  0  0  0  0
    4.1610   19.1290   17.3770 C   0  0  0  0  0  0  0  0  0  0  0  0
    2.9790   18.3570   17.5650 N   0  0  0  0  0  0  0  0  0  0  0  0
    7.0140   22.5990   17.1990 C   0  0  0  0  0  0  0  0  0  0  0  0
    2.7050   17.5880   18.7300 C   0  0  0  0  0  0  0  0  0  0  0  0
    1.9510   18.4620   16.4790 C   0  0  0  0  0  0  0  0  0  0  0  0
    1.4220   16.7730   18.8520 C   0  0  0  0  0  0  0  0  0  0  0  0
    4.4560   19.4320   16.2360 O   0  0  0  0  0  0  0  0  0  0  0  0
    1.1720   16.1340   20.2300 C   0  0  0  0  0  0  0  0  0  0  0  0
    1.9500   17.4130   15.3720 C   0  0  0  0  0  0  0  0  0  0  0  0
    2.7650   17.5570   14.2470 C   0  0  0  0  0  0  0  0  0  0  0  0
    1.0620   16.3340   15.4270 C   0  0  0  0  0  0  0  0  0  0  0  0
    2.6750   16.6420   13.1970 C   0  0  0  0  0  0  0  0  0  0  0  0
    3.5170   17.5340   19.6280 O   0  0  0  0  0  0  0  0  0  0  0  0
    0.9930   15.4130   14.3850 C   0  0  0  0  0  0  0  0  0  0  0  0
    3.4520   16.8790   12.0730 O   0  0  0  0  0  0  0  0  0  0  0  0
    1.7880   15.5680   13.2570 C   0  0  0  0  0  0  0  0  0  0  0  0
    4.0350   16.0160   11.1510 C   0  0  0  0  0  0  0  0  0  0  0  0
    4.1830   14.6470   11.3980 C   0  0  0  0  0  0  0  0  0  0  0  0
    4.5330   16.5870    9.9820 C   0  0  0  0  0  0  0  0  0  0  0  0
    5.1900   15.7690    9.0670 C   0  0  0  0  0  0  0  0  0  0  0  0
    5.6890   16.3180    7.9220 O   0  0  0  0  0  0  0  0  0  0  0  0
    4.8430   13.8460   10.4690 C   0  0  0  0  0  0  0  0  0  0  0  0
    5.3520   14.4030    9.2980 C   0  0  0  0  0  0  0  0  0  0  0  0
    9.5110   20.8590   18.6410 H   0  0  0  0  0  0  0  0  0  0  0  0
    9.1110   22.9160   17.3760 H   0  0  0  0  0  0  0  0  0  0  0  0
    7.6610   19.3570   19.1510 H   0  0  0  0  0  0  0  0  0  0  0  0
    4.9730   22.0040   17.1870 H   0  0  0  0  0  0  0  0  0  0  0  0
    5.4430   18.7890   19.0690 H   0  0  0  0  0  0  0  0  0  0  0  0
    4.3980   20.1190   19.2610 H   0  0  0  0  0  0  0  0  0  0  0  0
    6.8390   23.4950   16.6610 H   0  0  0  0  0  0  0  0  0  0  0  0
    0.9610   18.5210   16.9060 H   0  0  0  0  0  0  0  0  0  0  0  0
    2.0320   19.4330   16.0090 H   0  0  0  0  0  0  0  0  0  0  0  0
    0.5620   17.3750   18.6030 H   0  0  0  0  0  0  0  0  0  0  0  0
    1.4610   15.9770   18.1260 H   0  0  0  0  0  0  0  0  0  0  0  0
    1.0810   16.9000   20.9990 H   0  0  0  0  0  0  0  0  0  0  0  0
    0.2500   15.5540   20.2140 H   0  0  0  0  0  0  0  0  0  0  0  0
    1.9910   15.4670   20.5000 H   0  0  0  0  0  0  0  0  0  0  0  0
    3.4330   18.3750   14.1690 H   0  0  0  0  0  0  0  0  0  0  0  0
    0.4110   16.2200   16.2530 H   0  0  0  0  0  0  0  0  0  0  0  0
    0.3160   14.6020   14.4460 H   0  0  0  0  0  0  0  0  0  0  0  0
    1.7000   14.8870   12.4510 H   0  0  0  0  0  0  0  0  0  0  0  0
    3.8230   14.2160   12.2940 H   0  0  0  0  0  0  0  0  0  0  0  0
    4.4220   17.6240    9.7960 H   0  0  0  0  0  0  0  0  0  0  0  0
    6.1090   15.6380    7.3610 H   0  0  0  0  0  0  0  0  0  0  0  0
    4.9640   12.8100   10.6580 H   0  0  0  0  0  0  0  0  0  0  0  0
    5.8570   13.7950    8.5930 H   0  0  0  0  0  0  0  0  0  0  0  0
  1  2  1  0  0  0  0
  1  3  2  0  0  0  0
  1 30  1  0  0  0  0
  2  9  2  0  0  0  0
  2 31  1  0  0  0  0
  3  4  1  0  0  0  0
  3 32  1  0  0  0  0
  4  5  2  0  0  0  0
  4  6  1  0  0  0  0
  5  9  1  0  0  0  0
  5 33  1  0  0  0  0
  6  7  1  0  0  0  0
  6 34  1  0  0  0  0
  6 35  1  0  0  0  0
  7  8  1  0  0  0  0
  7 13  2  0  0  0  0
  8 10  1  0  0  0  0
  8 11  1  0  0  0  0
  9 36  1  0  0  0  0
 10 12  1  0  0  0  0
 10 19  2  0  0  0  0
 11 15  1  0  0  0  0
 11 37  1  0  0  0  0
 11 38  1  0  0  0  0
 12 14  1  0  0  0  0
 12 39  1  0  0  0  0
 12 40  1  0  0  0  0
 14 41  1  0  0  0  0
 14 42  1  0  0  0  0
 14 43  1  0  0  0  0
 15 16  2  0  0  0  0
 15 17  1  0  0  0  0
 16 18  1  0  0  0  0
 16 44  1  0  0  0  0
 17 20  2  0  0  0  0
 17 45  1  0  0  0  0
 18 21  1  0  0  0  0
 18 22  2  0  0  0  0
 20 22  1  0  0  0  0
 20 46  1  0  0  0  0
 21 23  1  0  0  0  0
 22 47  1  0  0  0  0
 23 24  1  0  0  0  0
 23 25  2  0  0  0  0
 24 28  2  0  0  0  0
 24 48  1  0  0  0  0
 25 26  1  0  0  0  0
 25 49  1  0  0  0  0
 26 27  1  0  0  0  0
 26 29  2  0  0  0  0
 27 50  1  0  0  0  0
 28 29  1  0  0  0  0
 28 51  1  0  0  0  0
 29 52  1  0  0  0  0
M  END
> <rseq>
1

> <mseq>
198

> <S>
-6.798774

> <rmsd_refine>
0.7639118

> <E_conf>
-34.58147

> <E_score1>
-10.17074

> <E_refine>
-36.53766

> <E_score2>
-6.798774

>  <$File>
outputs/pdb_4j58_cleaned.pdb_2024_06_17__22_47_40_V2_BS398_MIN1_/SDF/sdf_db.sdf

> <Rec_index>
1

>  <PLIF_raw>
[[],[],[],[],[]]

>  <PLIF_ligidx>
[]

$$$$
198
  MOE2022           3D

 52 53  0  0  1  0  0  0  0  0999 V2000
    5.3690   14.6490    9.8810 C   0  0  0  0  0  0  0  0  0  0  0  0
    4.5420   14.4140   10.9720 C   0  0  0  0  0  0  0  0  0  0  0  0
    3.6860   15.4260   11.4350 C   0  0  0  0  0  0  0  0  0  0  0  0
    6.2260   13.6620    9.4640 O   0  0  0  0  0  0  0  0  0  0  0  0
    3.6660   16.6630   10.7630 C   0  0  0  0  0  0  0  0  0  0  0  0
    2.8430   15.1990   12.6070 C   0  0  0  0  0  0  0  0  0  0  0  0
    2.5470   16.2850   13.3880 N   0  0  0  0  0  0  0  0  0  0  0  0
    2.4000   14.0990   12.9290 O   0  0  0  0  0  0  0  0  0  0  0  0
    5.3310   15.8780    9.2200 C   0  0  0  0  0  0  0  0  0  0  0  0
    1.6330   16.2820   14.5410 C   0  0  1  0  0  0  0  0  0  0  0  0
    2.3520   16.2030   15.8830 C   0  0  0  0  0  0  0  0  0  0  0  0
    0.7080   17.4940   14.5320 C   0  0  0  0  0  0  0  0  0  0  0  0
    3.5690   16.0190   15.9630 O   0  0  0  0  0  0  0  0  0  0  0  0
    0.7040   18.3040   13.6020 O   0  0  0  0  0  0  0  0  0  0  0  0
   -0.0340   17.6790   15.6410 N   0  0  0  0  0  0  0  0  0  0  0  0
    6.1150   16.0990    8.1310 O   0  0  0  0  0  0  0  0  0  0  0  0
    1.5970   16.4480   16.9760 N   0  0  0  0  0  0  0  0  0  0  0  0
    4.4830   16.8890    9.6600 C   0  0  0  0  0  0  0  0  0  0  0  0
    2.2370   16.6550   18.2810 C   0  0  1  0  0  0  0  0  0  0  0  0
    0.1870   16.8310   16.8130 C   0  0  0  0  0  0  0  0  0  0  0  0
    2.9600   18.0120   18.3320 C   0  0  0  0  0  0  0  0  0  0  0  0
   -0.8920   18.8530   15.8190 C   0  0  0  0  0  0  0  0  0  0  0  0
    1.2760   16.5270   19.3690 O   0  0  0  0  0  0  0  0  0  0  0  0
    1.8010   16.1770   20.6690 C   0  0  0  0  0  0  0  0  0  0  0  0
    2.1060   19.0960   17.8830 O   0  0  0  0  0  0  0  0  0  0  0  0
    2.7670   20.2220   17.2780 C   0  0  1  0  0  0  0  0  0  0  0  0
    3.0780   19.9590   15.7940 C   0  0  0  0  0  0  0  0  0  0  0  0
    1.9270   21.3710   17.4410 O   0  0  0  0  0  0  0  0  0  0  0  0
    3.9670   20.9230   15.2650 O   0  0  0  0  0  0  0  0  0  0  0  0
    4.5640   13.4740   11.4570 H   0  0  0  0  0  0  0  0  0  0  0  0
    6.1530   12.8820   10.0510 H   0  0  0  0  0  0  0  0  0  0  0  0
    3.0170   17.4350   11.0870 H   0  0  0  0  0  0  0  0  0  0  0  0
    2.9440   17.2000   13.1250 H   0  0  0  0  0  0  0  0  0  0  0  0
    0.9870   15.4150   14.4950 H   0  0  0  0  0  0  0  0  0  0  0  0
    6.6420   15.2980    7.9400 H   0  0  0  0  0  0  0  0  0  0  0  0
    4.4570   17.8200    9.1560 H   0  0  0  0  0  0  0  0  0  0  0  0
    2.9700   15.8740   18.4300 H   0  0  0  0  0  0  0  0  0  0  0  0
   -0.1670   17.3490   17.6950 H   0  0  0  0  0  0  0  0  0  0  0  0
   -0.4240   15.9410   16.7410 H   0  0  0  0  0  0  0  0  0  0  0  0
    3.3130   18.2270   19.3390 H   0  0  0  0  0  0  0  0  0  0  0  0
    3.8250   17.9770   17.6730 H   0  0  0  0  0  0  0  0  0  0  0  0
   -1.7500   18.6250   16.4360 H   0  0  0  0  0  0  0  0  0  0  0  0
   -0.3530   19.6590   16.2980 H   0  0  0  0  0  0  0  0  0  0  0  0
   -1.2710   19.2270   14.8770 H   0  0  0  0  0  0  0  0  0  0  0  0
    1.0270   16.3190   21.4230 H   0  0  0  0  0  0  0  0  0  0  0  0
    2.1110   15.1340   20.6750 H   0  0  0  0  0  0  0  0  0  0  0  0
    2.6550   16.8050   20.9210 H   0  0  0  0  0  0  0  0  0  0  0  0
    3.6830   20.4060   17.8250 H   0  0  0  0  0  0  0  0  0  0  0  0
    3.5380   18.9780   15.6800 H   0  0  0  0  0  0  0  0  0  0  0  0
    2.1520   19.9710   15.2180 H   0  0  0  0  0  0  0  0  0  0  0  0
    1.3460   22.1320   17.6000 H   0  0  0  0  0  0  0  0  0  0  0  0
    3.5440   21.7850   15.3250 H   0  0  0  0  0  0  0  0  0  0  0  0
  1  2  1  0  0  0  0
  1  4  1  0  0  0  0
  1  9  2  0  0  0  0
  2  3  2  0  0  0  0
  2 30  1  0  0  0  0
  3  5  1  0  0  0  0
  3  6  1  0  0  0  0
  4 31  1  0  0  0  0
  5 18  2  0  0  0  0
  5 32  1  0  0  0  0
  6  7  1  0  0  0  0
  6  8  2  0  0  0  0
  7 10  1  0  0  0  0
  7 33  1  0  0  0  0
  9 16  1  0  0  0  0
  9 18  1  0  0  0  0
 10 11  1  0  0  0  0
 10 12  1  0  0  0  0
 10 34  1  0  0  0  0
 11 13  2  0  0  0  0
 11 17  1  0  0  0  0
 12 14  2  0  0  0  0
 12 15  1  0  0  0  0
 15 20  1  0  0  0  0
 15 22  1  0  0  0  0
 16 35  1  0  0  0  0
 17 19  1  0  0  0  0
 17 20  1  0  0  0  0
 18 36  1  0  0  0  0
 19 21  1  0  0  0  0
 19 23  1  0  0  0  0
 19 37  1  0  0  0  0
 20 38  1  0  0  0  0
 20 39  1  0  0  0  0
 21 25  1  0  0  0  0
 21 40  1  0  0  0  0
 21 41  1  0  0  0  0
 22 42  1  0  0  0  0
 22 43  1  0  0  0  0
 22 44  1  0  0  0  0
 23 24  1  0  0  0  0
 24 45  1  0  0  0  0
 24 46  1  0  0  0  0
 24 47  1  0  0  0  0
 25 26  1  0  0  0  0
 26 27  1  0  0  0  0
 26 28  1  0  0  0  0
 26 48  1  0  0  0  0
 27 29  1  0  0  0  0
 27 49  1  0  0  0  0
 27 50  1  0  0  0  0
 28 51  1  0  0  0  0
 29 52  1  0  0  0  0
M  END
> <rseq>
1

> <mseq>
199

> <S>
-6.058665

> <rmsd_refine>
1.817076

> <E_conf>
1.293947

> <E_score1>
-10.64452

> <E_refine>
-31.56098

> <E_score2>
-6.058665

>  <$File>
outputs/pdb_4j58_cleaned.pdb_2024_06_17__22_47_40_V2_BS398_MIN1_/SDF/sdf_db.sdf

> <Rec_index>
1

>  <PLIF_raw>
[13,954,62,2,1.3]

> <FP:PLIF>
20

>  <PLIF_ligidx>
13

$$$$
199
  MOE2022           3D

 45 48  0  0  0  0  0  0  0  0999 V2000
    7.1580   20.8690   19.0380 C   0  0  0  0  0  0  0  0  0  0  0  0
    6.2210   19.8750   18.7720 C   0  0  0  0  0  0  0  0  0  0  0  0
    5.0280   20.1650   18.0960 C   0  0  0  0  0  0  0  0  0  0  0  0
    4.0550   19.1050   17.8070 C   0  0  0  0  0  0  0  0  0  0  0  0
    3.5330   18.9190   16.5210 C   0  0  0  0  0  0  0  0  0  0  0  0
    3.6050   18.2720   18.8340 C   0  0  0  0  0  0  0  0  0  0  0  0
    2.6020   17.3150   18.6310 C   0  0  0  0  0  0  0  0  0  0  0  0
    2.5460   17.9650   16.2860 C   0  0  0  0  0  0  0  0  0  0  0  0
    2.0780   16.5350   19.7490 C   0  0  0  0  0  0  0  0  0  0  0  0
    2.0920   17.1670   17.3330 C   0  0  0  0  0  0  0  0  0  0  0  0
    1.9260   17.8320   14.9100 C   0  0  0  0  0  0  0  0  0  0  0  0
    0.8860   15.9830   19.7650 N   0  0  0  0  0  0  0  0  0  0  0  0
    2.7310   16.3300   20.8720 N   0  0  0  0  0  0  0  0  0  0  0  0
    1.9120   15.6250   21.6230 N   0  5  0  0  0  0  0  0  0  0  0  0
    2.7720   17.1430   13.9320 N   0  0  0  0  0  0  0  0  0  0  0  0
    4.7990   21.5060   17.7360 C   0  0  0  0  0  0  0  0  0  0  0  0
    2.8080   17.4780   12.5960 C   0  0  0  0  0  0  0  0  0  0  0  0
    0.7880   15.4180   20.9480 N   0  0  0  0  0  0  0  0  0  0  0  0
    3.4940   16.5800   11.6640 C   0  0  0  0  0  0  0  0  0  0  0  0
    3.6270   21.8730   17.1420 O   0  0  0  0  0  0  0  0  0  0  0  0
    2.2770   18.5300   12.2440 O   0  0  0  0  0  0  0  0  0  0  0  0
    4.1780   17.0690   10.5330 C   0  0  0  0  0  0  0  0  0  0  0  0
    6.9200   22.1820   18.6430 C   0  0  0  0  0  0  0  0  0  0  0  0
    5.7360   22.5050   17.9920 C   0  0  0  0  0  0  0  0  0  0  0  0
    3.5070   15.1930   11.8830 C   0  0  0  0  0  0  0  0  0  0  0  0
    4.2020   14.3430   11.0280 C   0  0  0  0  0  0  0  0  0  0  0  0
    4.1900   18.4000   10.2400 O   0  0  0  0  0  0  0  0  0  0  0  0
    4.8950   14.8560    9.9330 C   0  0  0  0  0  0  0  0  0  0  0  0
    4.8820   16.2210    9.6800 C   0  0  0  0  0  0  0  0  0  0  0  0
    8.0590   20.6250   19.5400 H   0  0  0  0  0  0  0  0  0  0  0  0
    6.4190   18.8870   19.0890 H   0  0  0  0  0  0  0  0  0  0  0  0
    3.8790   19.5230   15.7210 H   0  0  0  0  0  0  0  0  0  0  0  0
    4.0120   18.3910   19.8020 H   0  0  0  0  0  0  0  0  0  0  0  0
    1.3350   16.4460   17.1530 H   0  0  0  0  0  0  0  0  0  0  0  0
    0.9830   17.3080   14.9850 H   0  0  0  0  0  0  0  0  0  0  0  0
    1.6640   18.8210   14.5600 H   0  0  0  0  0  0  0  0  0  0  0  0
    3.1810   16.2430   14.2270 H   0  0  0  0  0  0  0  0  0  0  0  0
    3.0150   21.1110   17.1090 H   0  0  0  0  0  0  0  0  0  0  0  0
    7.6400   22.9340   18.8410 H   0  0  0  0  0  0  0  0  0  0  0  0
    5.5430   23.5050   17.6980 H   0  0  0  0  0  0  0  0  0  0  0  0
    2.9870   14.7790   12.7080 H   0  0  0  0  0  0  0  0  0  0  0  0
    4.2050   13.2990   11.2070 H   0  0  0  0  0  0  0  0  0  0  0  0
    3.5710   18.8820   10.8280 H   0  0  0  0  0  0  0  0  0  0  0  0
    5.4260   14.2020    9.2900 H   0  0  0  0  0  0  0  0  0  0  0  0
    5.3990   16.6150    8.8430 H   0  0  0  0  0  0  0  0  0  0  0  0
  1  2  1  0  0  0  0
  1 23  2  0  0  0  0
  1 30  1  0  0  0  0
  2  3  2  0  0  0  0
  2 31  1  0  0  0  0
  3  4  1  0  0  0  0
  3 16  1  0  0  0  0
  4  5  1  0  0  0  0
  4  6  2  0  0  0  0
  5  8  2  0  0  0  0
  5 32  1  0  0  0  0
  6  7  1  0  0  0  0
  6 33  1  0  0  0  0
  7  9  1  0  0  0  0
  7 10  2  0  0  0  0
  8 10  1  0  0  0  0
  8 11  1  0  0  0  0
  9 12  1  0  0  0  0
  9 13  2  0  0  0  0
 10 34  1  0  0  0  0
 11 15  1  0  0  0  0
 11 35  1  0  0  0  0
 11 36  1  0  0  0  0
 12 18  2  0  0  0  0
 13 14  1  0  0  0  0
 14 18  1  0  0  0  0
 15 17  1  0  0  0  0
 15 37  1  0  0  0  0
 16 20  1  0  0  0  0
 16 24  2  0  0  0  0
 17 19  1  0  0  0  0
 17 21  2  0  0  0  0
 19 22  1  0  0  0  0
 19 25  2  0  0  0  0
 20 38  1  0  0  0  0
 22 27  1  0  0  0  0
 22 29  2  0  0  0  0
 23 24  1  0  0  0  0
 23 39  1  0  0  0  0
 24 40  1  0  0  0  0
 25 26  1  0  0  0  0
 25 41  1  0  0  0  0
 26 28  2  0  0  0  0
 26 42  1  0  0  0  0
 27 43  1  0  0  0  0
 28 29  1  0  0  0  0
 28 44  1  0  0  0  0
 29 45  1  0  0  0  0
M  CHG  1  14  -1
M  END
> <rseq>
1

> <mseq>
200

> <S>
-6.316323

> <rmsd_refine>
0.84622

> <E_conf>
-64.7905

> <E_score1>
-11.30112

> <E_refine>
-36.85158

> <E_score2>
-6.316323

>  <$File>
outputs/pdb_4j58_cleaned.pdb_2024_06_17__22_47_40_V2_BS398_MIN1_/SDF/sdf_db.sdf

> <Rec_index>
1

>  <PLIF_raw>
[[18,18,14,14,18,18,4,6,7,10,8,5],[1206,1212,1206,1212,1206,1212,954,954,954,954,954,954],[81,81,81,81,81,81,62,62,62,62,62,62],[2,2,7,7,7,7,10,10,10,10,10,10],[3.7,0.9,1.940585936,1.500582395,3.101743461,3.94386462,0.9,0.9,0.9,0.9,0.9,0.9]]

> <FP:PLIF>
21 17 18 24 25

>  <PLIF_ligidx>
[[4,6,7,10,8,5],[18,18],18,[14,14,18,18],18]

$$$$
200
  MOE2022           3D

 58 60  0  0  1  0  0  0  0  0999 V2000
    8.5870   21.0020   18.8740 C   0  0  0  0  0  0  0  0  0  0  0  0
    7.6360   21.2450   17.6970 C   0  0  0  0  0  0  0  0  0  0  0  0
    7.8930   22.6460   17.1240 C   0  0  0  0  0  0  0  0  0  0  0  0
    6.1820   21.0790   18.1830 C   0  0  0  0  0  0  0  0  0  0  0  0
    5.1440   21.1060   17.0600 C   0  0  0  0  0  0  0  0  0  0  0  0
    7.9290   20.3020   16.6920 O   0  0  0  0  0  0  0  0  0  0  0  0
    4.7440   19.9180   16.5950 N   0  0  0  0  0  0  0  0  0  0  0  0
    4.6980   22.1760   16.6540 O   0  0  0  0  0  0  0  0  0  0  0  0
    3.6130   19.7360   15.6840 C   0  0  2  0  0  0  0  0  0  0  0  0
    2.2710   20.0670   16.3270 C   0  0  0  0  0  0  0  0  0  0  0  0
    3.4990   18.2950   15.2500 C   0  0  0  0  0  0  0  0  0  0  0  0
    1.6820   19.0790   17.0450 N   0  0  0  0  0  0  0  0  0  0  0  0
    1.6990   21.1290   16.0820 O   0  0  0  0  0  0  0  0  0  0  0  0
    0.2350   19.0590   17.2390 C   0  0  0  0  0  0  0  0  0  0  0  0
   -0.5180   18.4180   16.0680 C   0  0  0  0  0  0  0  0  0  0  0  0
    3.2410   17.3570   16.2470 N   0  0  0  0  0  0  0  0  0  0  0  0
    2.3970   17.8270   17.3510 C   0  0  1  0  0  0  0  0  0  0  0  0
    2.9170   16.0910   15.5600 C   0  0  0  0  0  0  0  0  0  0  0  0
    3.0280   16.3900   14.0800 C   0  0  0  0  0  0  0  0  0  0  0  0
    3.1910   18.0040   18.5220 O   0  0  0  0  0  0  0  0  0  0  0  0
    2.7450   15.5220   13.0880 C   0  0  0  0  0  0  0  0  0  0  0  0
    3.4140   17.7700   14.0150 C   0  0  0  0  0  0  0  0  0  0  0  0
    2.7680   15.8710   11.6140 C   0  0  0  0  0  0  0  0  0  0  0  0
    3.9050   15.2130   10.8650 C   0  0  0  0  0  0  0  0  0  0  0  0
    4.0490   13.8270   10.9000 C   0  0  0  0  0  0  0  0  0  0  0  0
    5.0870   13.2110   10.2120 C   0  0  0  0  0  0  0  0  0  0  0  0
    4.8060   15.9780   10.1240 C   0  0  0  0  0  0  0  0  0  0  0  0
    5.8400   15.3620    9.4280 C   0  0  0  0  0  0  0  0  0  0  0  0
    5.9790   13.9780    9.4730 C   0  0  0  0  0  0  0  0  0  0  0  0
    8.4700   19.9830   19.2430 H   0  0  0  0  0  0  0  0  0  0  0  0
    9.6220   21.1460   18.5620 H   0  0  0  0  0  0  0  0  0  0  0  0
    8.3660   21.7020   19.6800 H   0  0  0  0  0  0  0  0  0  0  0  0
    7.2790   22.8130   16.2380 H   0  0  0  0  0  0  0  0  0  0  0  0
    7.6570   23.4050   17.8690 H   0  0  0  0  0  0  0  0  0  0  0  0
    8.9410   22.7390   16.8410 H   0  0  0  0  0  0  0  0  0  0  0  0
    6.0920   20.1320   18.7170 H   0  0  0  0  0  0  0  0  0  0  0  0
    5.9460   21.8740   18.8910 H   0  0  0  0  0  0  0  0  0  0  0  0
    7.9160   19.4230   17.0810 H   0  0  0  0  0  0  0  0  0  0  0  0
    5.1370   19.0810   16.9980 H   0  0  0  0  0  0  0  0  0  0  0  0
    3.7560   20.3650   14.8160 H   0  0  0  0  0  0  0  0  0  0  0  0
    0.0090   18.5140   18.1430 H   0  0  0  0  0  0  0  0  0  0  0  0
   -0.1380   20.0620   17.3950 H   0  0  0  0  0  0  0  0  0  0  0  0
   -0.2020   17.3850   15.9220 H   0  0  0  0  0  0  0  0  0  0  0  0
   -1.5910   18.4270   16.2610 H   0  0  0  0  0  0  0  0  0  0  0  0
   -0.3310   18.9720   15.1460 H   0  0  0  0  0  0  0  0  0  0  0  0
    1.6730   17.0560   17.5870 H   0  0  0  0  0  0  0  0  0  0  0  0
    3.6170   15.3230   15.8550 H   0  0  0  0  0  0  0  0  0  0  0  0
    1.9200   15.7540   15.8080 H   0  0  0  0  0  0  0  0  0  0  0  0
    2.7050   18.5580   19.1550 H   0  0  0  0  0  0  0  0  0  0  0  0
    2.4630   14.5240   13.3100 H   0  0  0  0  0  0  0  0  0  0  0  0
    3.5380   18.3230   13.1210 H   0  0  0  0  0  0  0  0  0  0  0  0
    1.8320   15.5610   11.1700 H   0  0  0  0  0  0  0  0  0  0  0  0
    2.7960   16.9420   11.4730 H   0  0  0  0  0  0  0  0  0  0  0  0
    3.3650   13.2350   11.4510 H   0  0  0  0  0  0  0  0  0  0  0  0
    5.1960   12.1580   10.2490 H   0  0  0  0  0  0  0  0  0  0  0  0
    4.7030   17.0320   10.0830 H   0  0  0  0  0  0  0  0  0  0  0  0
    6.5140   15.9460    8.8580 H   0  0  0  0  0  0  0  0  0  0  0  0
    6.7570   13.5030    8.9410 H   0  0  0  0  0  0  0  0  0  0  0  0
  1  2  1  0  0  0  0
  1 30  1  0  0  0  0
  1 31  1  0  0  0  0
  1 32  1  0  0  0  0
  2  3  1  0  0  0  0
  2  4  1  0  0  0  0
  2  6  1  0  0  0  0
  3 33  1  0  0  0  0
  3 34  1  0  0  0  0
  3 35  1  0  0  0  0
  4  5  1  0  0  0  0
  4 36  1  0  0  0  0
  4 37  1  0  0  0  0
  5  7  1  0  0  0  0
  5  8  2  0  0  0  0
  6 38  1  0  0  0  0
  7  9  1  0  0  0  0
  7 39  1  0  0  0  0
  9 10  1  0  0  0  0
  9 11  1  0  0  0  0
  9 40  1  0  0  0  0
 10 12  1  0  0  0  0
 10 13  2  0  0  0  0
 11 16  1  0  0  0  0
 11 22  2  0  0  0  0
 12 14  1  0  0  0  0
 12 17  1  0  0  0  0
 14 15  1  0  0  0  0
 14 41  1  0  0  0  0
 14 42  1  0  0  0  0
 15 43  1  0  0  0  0
 15 44  1  0  0  0  0
 15 45  1  0  0  0  0
 16 17  1  0  0  0  0
 16 18  1  0  0  0  0
 17 20  1  0  0  0  0
 17 46  1  0  0  0  0
 18 19  1  0  0  0  0
 18 47  1  0  0  0  0
 18 48  1  0  0  0  0
 19 21  2  0  0  0  0
 19 22  1  0  0  0  0
 20 49  1  0  0  0  0
 21 23  1  0  0  0  0
 21 50  1  0  0  0  0
 22 51  1  0  0  0  0
 23 24  1  0  0  0  0
 23 52  1  0  0  0  0
 23 53  1  0  0  0  0
 24 25  2  0  0  0  0
 24 27  1  0  0  0  0
 25 26  1  0  0  0  0
 25 54  1  0  0  0  0
 26 29  2  0  0  0  0
 26 55  1  0  0  0  0
 27 28  2  0  0  0  0
 27 56  1  0  0  0  0
 28 29  1  0  0  0  0
 28 57  1  0  0  0  0
 29 58  1  0  0  0  0
M  END
> <rseq>
1

> <mseq>
201

> <S>
-6.702587

> <rmsd_refine>
1.313517

> <E_conf>
-146.3917

> <E_score1>
-9.383822

> <E_refine>
-38.53512

> <E_score2>
-6.702587

>  <$File>
outputs/pdb_4j58_cleaned.pdb_2024_06_17__22_47_40_V2_BS398_MIN1_/SDF/sdf_db.sdf

> <Rec_index>
1

>  <PLIF_raw>
[20,1504,101,3,0.7]

> <FP:PLIF>
8

>  <PLIF_ligidx>
20

$$$$
201
  MOE2022           3D

 50 52  0  0  1  0  0  0  0  0999 V2000
    8.4120   20.7390   18.5930 C   0  0  0  0  0  0  0  0  0  0  0  0
    8.4480   21.9730   17.9530 C   0  0  0  0  0  0  0  0  0  0  0  0
    7.1950   20.0970   18.8020 C   0  0  0  0  0  0  0  0  0  0  0  0
    6.0070   20.6850   18.3710 C   0  0  0  0  0  0  0  0  0  0  0  0
    6.0490   21.9220   17.7280 C   0  0  0  0  0  0  0  0  0  0  0  0
    7.2660   22.5660   17.5220 C   0  0  0  0  0  0  0  0  0  0  0  0
    4.6800   19.9800   18.5880 C   0  0  0  0  0  0  0  0  0  0  0  0
    4.1970   19.1410   17.4040 C   0  0  0  0  0  0  0  0  0  0  0  0
    3.1060   18.2290   17.4890 N   0  0  0  0  0  0  0  0  0  0  0  0
    2.6870   17.6470   18.7140 C   0  0  0  0  0  0  0  0  0  0  0  0
    2.3980   17.8740   16.2270 C   0  0  2  0  0  0  0  0  0  0  0  0
    4.6980   19.3280   16.3120 O   0  0  0  0  0  0  0  0  0  0  0  0
    1.0480   18.6230   16.1790 C   0  0  1  0  0  0  0  0  0  0  0  0
    1.3000   17.2490   19.0200 C   0  0  0  0  0  0  0  0  0  0  0  0
    2.3670   16.3410   15.9740 C   0  0  0  0  0  0  0  0  0  0  0  0
    1.0210   16.7130   20.0810 O   0  0  0  0  0  0  0  0  0  0  0  0
    3.5550   17.4370   19.5500 O   0  0  0  0  0  0  0  0  0  0  0  0
    0.6570   18.8970   14.8500 O   0  0  0  0  0  0  0  0  0  0  0  0
   -0.0820   17.8810   16.8790 C   0  0  0  0  0  0  0  0  0  0  0  0
    1.9010   15.8810   14.5810 C   0  0  0  0  0  0  0  0  0  0  0  0
    2.9970   15.6340   13.6620 O   0  0  0  0  0  0  0  0  0  0  0  0
    3.2560   16.3470   12.5010 C   0  0  0  0  0  0  0  0  0  0  0  0
    0.2280   17.4360   18.2120 O   0  0  0  0  0  0  0  0  0  0  0  0
    3.8200   15.6760   11.4110 C   0  0  0  0  0  0  0  0  0  0  0  0
    2.9990   17.7150   12.4140 C   0  0  0  0  0  0  0  0  0  0  0  0
    4.0730   14.3320   11.4780 O   0  0  0  0  0  0  0  0  0  0  0  0
    4.1390   16.3620   10.2430 C   0  0  0  0  0  0  0  0  0  0  0  0
    3.3170   18.4020   11.2440 C   0  0  0  0  0  0  0  0  0  0  0  0
    3.8880   17.7290   10.1630 C   0  0  0  0  0  0  0  0  0  0  0  0
    9.3120   20.2870   18.9180 H   0  0  0  0  0  0  0  0  0  0  0  0
    9.3740   22.4600   17.7940 H   0  0  0  0  0  0  0  0  0  0  0  0
    7.1780   19.1580   19.2910 H   0  0  0  0  0  0  0  0  0  0  0  0
    5.1530   22.3770   17.3910 H   0  0  0  0  0  0  0  0  0  0  0  0
    7.2930   23.5060   17.0340 H   0  0  0  0  0  0  0  0  0  0  0  0
    4.7560   19.4210   19.5040 H   0  0  0  0  0  0  0  0  0  0  0  0
    3.9270   20.7270   18.7890 H   0  0  0  0  0  0  0  0  0  0  0  0
    2.9540   18.2630   15.3880 H   0  0  0  0  0  0  0  0  0  0  0  0
    1.1870   19.5830   16.6780 H   0  0  0  0  0  0  0  0  0  0  0  0
    3.3670   15.9390   16.1430 H   0  0  0  0  0  0  0  0  0  0  0  0
    1.7130   15.8780   16.7070 H   0  0  0  0  0  0  0  0  0  0  0  0
   -0.0850   19.5080   14.8620 H   0  0  0  0  0  0  0  0  0  0  0  0
   -0.9510   18.5370   16.9350 H   0  0  0  0  0  0  0  0  0  0  0  0
   -0.3590   17.0080   16.2870 H   0  0  0  0  0  0  0  0  0  0  0  0
    1.3780   14.9320   14.7040 H   0  0  0  0  0  0  0  0  0  0  0  0
    1.1940   16.5830   14.1440 H   0  0  0  0  0  0  0  0  0  0  0  0
    2.5750   18.2390   13.2270 H   0  0  0  0  0  0  0  0  0  0  0  0
    3.8140   13.9760   12.3520 H   0  0  0  0  0  0  0  0  0  0  0  0
    4.5690   15.8480    9.4220 H   0  0  0  0  0  0  0  0  0  0  0  0
    3.1250   19.4420   11.1740 H   0  0  0  0  0  0  0  0  0  0  0  0
    4.1270   18.2600    9.2780 H   0  0  0  0  0  0  0  0  0  0  0  0
  1  2  2  0  0  0  0
  1  3  1  0  0  0  0
  1 30  1  0  0  0  0
  2  6  1  0  0  0  0
  2 31  1  0  0  0  0
  3  4  2  0  0  0  0
  3 32  1  0  0  0  0
  4  5  1  0  0  0  0
  4  7  1  0  0  0  0
  5  6  2  0  0  0  0
  5 33  1  0  0  0  0
  6 34  1  0  0  0  0
  7  8  1  0  0  0  0
  7 35  1  0  0  0  0
  7 36  1  0  0  0  0
  8  9  1  0  0  0  0
  8 12  2  0  0  0  0
  9 10  1  0  0  0  0
  9 11  1  0  0  0  0
 10 14  1  0  0  0  0
 10 17  2  0  0  0  0
 11 13  1  0  0  0  0
 11 15  1  0  0  0  0
 11 37  1  0  0  0  0
 13 18  1  0  0  0  0
 13 19  1  0  0  0  0
 13 38  1  0  0  0  0
 14 16  2  0  0  0  0
 14 23  1  0  0  0  0
 15 20  1  0  0  0  0
 15 39  1  0  0  0  0
 15 40  1  0  0  0  0
 18 41  1  0  0  0  0
 19 23  1  0  0  0  0
 19 42  1  0  0  0  0
 19 43  1  0  0  0  0
 20 21  1  0  0  0  0
 20 44  1  0  0  0  0
 20 45  1  0  0  0  0
 21 22  1  0  0  0  0
 22 24  1  0  0  0  0
 22 25  2  0  0  0  0
 24 26  1  0  0  0  0
 24 27  2  0  0  0  0
 25 28  1  0  0  0  0
 25 46  1  0  0  0  0
 26 47  1  0  0  0  0
 27 29  1  0  0  0  0
 27 48  1  0  0  0  0
 28 29  2  0  0  0  0
 28 49  1  0  0  0  0
 29 50  1  0  0  0  0
M  END
> <rseq>
1

> <mseq>
202

> <S>
-6.399368

> <rmsd_refine>
0.8430352

> <E_conf>
65.24133

> <E_score1>
-9.116307

> <E_refine>
-34.70141

> <E_score2>
-6.399368

>  <$File>
outputs/pdb_4j58_cleaned.pdb_2024_06_17__22_47_40_V2_BS398_MIN1_/SDF/sdf_db.sdf

> <Rec_index>
1

>  <PLIF_raw>
[26,1056,70,3,0.6]

> <FP:PLIF>
3

>  <PLIF_ligidx>
26

$$$$
202
  MOE2022           3D

 55 57  0  0  1  0  0  0  0  0999 V2000
    7.2600   21.1750   19.1870 C   0  0  0  0  0  0  0  0  0  0  0  0
    6.7920   22.4600   18.9320 C   0  0  0  0  0  0  0  0  0  0  0  0
    6.4080   20.0850   19.0510 C   0  0  0  0  0  0  0  0  0  0  0  0
    5.4690   22.6570   18.5490 C   0  0  0  0  0  0  0  0  0  0  0  0
    5.0780   20.2690   18.6520 C   0  0  0  0  0  0  0  0  0  0  0  0
    4.6140   21.5690   18.4130 C   0  0  0  0  0  0  0  0  0  0  0  0
    4.1890   19.1180   18.5100 C   0  0  0  0  0  0  0  0  0  0  0  0
    3.4620   18.9260   17.3370 N   0  0  0  0  0  0  0  0  0  0  0  0
    4.1170   19.3030   16.0710 C   0  0  0  0  0  0  0  0  0  0  0  0
    4.0890   18.2990   19.4160 O   0  0  0  0  0  0  0  0  0  0  0  0
    2.4690   17.8160   17.2270 C   0  0  1  0  0  0  0  0  0  0  0  0
    1.5400   17.8070   18.3480 N   0  0  0  0  0  0  0  0  0  0  0  0
    1.6620   17.8330   15.9110 C   0  0  0  0  0  0  0  0  0  0  0  0
    2.4930   18.0220   14.7120 N   0  0  0  0  0  0  0  0  0  0  0  0
    1.6490   18.0100   13.5030 C   0  0  0  0  0  0  0  0  0  0  0  0
    2.4290   17.6320   12.2310 C   0  0  0  0  0  0  0  0  0  0  0  0
    2.9110   16.1880   12.1800 C   0  0  0  0  0  0  0  0  0  0  0  0
    1.4680   16.7680   19.2220 C   0  0  0  0  0  0  0  0  0  0  0  0
    3.7780   15.7780   11.1650 N   0  0  0  0  0  0  0  0  0  0  0  0
    4.2300   16.6430   10.1240 C   0  0  0  0  0  0  0  0  0  0  0  0
    3.1950   19.3010   14.8470 C   0  0  0  0  0  0  0  0  0  0  0  0
    2.0110   15.6850   19.0450 O   0  0  0  0  0  0  0  0  0  0  0  0
    0.7490   17.0380   20.3230 O   0  0  0  0  0  0  0  0  0  0  0  0
    5.1760   16.2430    9.2400 C   0  0  0  0  0  0  0  0  0  0  0  0
    5.7690   14.9300    9.3120 C   0  0  0  0  0  0  0  0  0  0  0  0
    0.6630   16.1070   21.4090 C   0  0  0  0  0  0  0  0  0  0  0  0
    4.2110   14.3550   11.1610 C   0  0  0  0  0  0  0  0  0  0  0  0
    2.5400   15.3670   13.0030 O   0  0  0  0  0  0  0  0  0  0  0  0
    5.3450   14.0290   10.2130 C   0  0  0  0  0  0  0  0  0  0  0  0
    8.2670   21.0270   19.4820 H   0  0  0  0  0  0  0  0  0  0  0  0
    7.4450   23.2870   19.0280 H   0  0  0  0  0  0  0  0  0  0  0  0
    6.7710   19.1100   19.2480 H   0  0  0  0  0  0  0  0  0  0  0  0
    5.1130   23.6370   18.3590 H   0  0  0  0  0  0  0  0  0  0  0  0
    3.6050   21.7250   18.1280 H   0  0  0  0  0  0  0  0  0  0  0  0
    4.5890   20.2720   16.1390 H   0  0  0  0  0  0  0  0  0  0  0  0
    4.9120   18.5980   15.8910 H   0  0  0  0  0  0  0  0  0  0  0  0
    3.0310   16.8910   17.2290 H   0  0  0  0  0  0  0  0  0  0  0  0
    1.0980   18.6990   18.6100 H   0  0  0  0  0  0  0  0  0  0  0  0
    1.1170   16.9020   15.8270 H   0  0  0  0  0  0  0  0  0  0  0  0
    0.9180   18.6180   15.9570 H   0  0  0  0  0  0  0  0  0  0  0  0
    0.8390   17.3030   13.6290 H   0  0  0  0  0  0  0  0  0  0  0  0
    1.1760   18.9750   13.3770 H   0  0  0  0  0  0  0  0  0  0  0  0
    1.7960   17.8110   11.3730 H   0  0  0  0  0  0  0  0  0  0  0  0
    3.2650   18.3050   12.1130 H   0  0  0  0  0  0  0  0  0  0  0  0
    3.7850   17.6030   10.0920 H   0  0  0  0  0  0  0  0  0  0  0  0
    2.4780   20.1080   14.9290 H   0  0  0  0  0  0  0  0  0  0  0  0
    3.7820   19.4960   13.9600 H   0  0  0  0  0  0  0  0  0  0  0  0
    5.5040   16.8940    8.4720 H   0  0  0  0  0  0  0  0  0  0  0  0
    6.5440   14.6870    8.6350 H   0  0  0  0  0  0  0  0  0  0  0  0
    0.1770   15.1940   21.0700 H   0  0  0  0  0  0  0  0  0  0  0  0
    1.6590   15.8680   21.7840 H   0  0  0  0  0  0  0  0  0  0  0  0
    0.0780   16.5410   22.2200 H   0  0  0  0  0  0  0  0  0  0  0  0
    4.5100   14.0670   12.1560 H   0  0  0  0  0  0  0  0  0  0  0  0
    3.3650   13.7240   10.9270 H   0  0  0  0  0  0  0  0  0  0  0  0
    5.7690   13.0600   10.2790 H   0  0  0  0  0  0  0  0  0  0  0  0
  1  2  2  0  0  0  0
  1  3  1  0  0  0  0
  1 30  1  0  0  0  0
  2  4  1  0  0  0  0
  2 31  1  0  0  0  0
  3  5  2  0  0  0  0
  3 32  1  0  0  0  0
  4  6  2  0  0  0  0
  4 33  1  0  0  0  0
  5  6  1  0  0  0  0
  5  7  1  0  0  0  0
  6 34  1  0  0  0  0
  7  8  1  0  0  0  0
  7 10  2  0  0  0  0
  8  9  1  0  0  0  0
  8 11  1  0  0  0  0
  9 21  1  0  0  0  0
  9 35  1  0  0  0  0
  9 36  1  0  0  0  0
 11 12  1  0  0  0  0
 11 13  1  0  0  0  0
 11 37  1  0  0  0  0
 12 18  1  0  0  0  0
 12 38  1  0  0  0  0
 13 14  1  0  0  0  0
 13 39  1  0  0  0  0
 13 40  1  0  0  0  0
 14 15  1  0  0  0  0
 14 21  1  0  0  0  0
 15 16  1  0  0  0  0
 15 41  1  0  0  0  0
 15 42  1  0  0  0  0
 16 17  1  0  0  0  0
 16 43  1  0  0  0  0
 16 44  1  0  0  0  0
 17 19  1  0  0  0  0
 17 28  2  0  0  0  0
 18 22  2  0  0  0  0
 18 23  1  0  0  0  0
 19 20  1  0  0  0  0
 19 27  1  0  0  0  0
 20 24  2  0  0  0  0
 20 45  1  0  0  0  0
 21 46  1  0  0  0  0
 21 47  1  0  0  0  0
 23 26  1  0  0  0  0
 24 25  1  0  0  0  0
 24 48  1  0  0  0  0
 25 29  2  0  0  0  0
 25 49  1  0  0  0  0
 26 50  1  0  0  0  0
 26 51  1  0  0  0  0
 26 52  1  0  0  0  0
 27 29  1  0  0  0  0
 27 53  1  0  0  0  0
 27 54  1  0  0  0  0
 29 55  1  0  0  0  0
M  END
> <rseq>
1

> <mseq>
203

> <S>
-6.590114

> <rmsd_refine>
0.8145528

> <E_conf>
-54.67189

> <E_score1>
-10.04282

> <E_refine>
-31.85247

> <E_score2>
-6.590114

>  <$File>
outputs/pdb_4j58_cleaned.pdb_2024_06_17__22_47_40_V2_BS398_MIN1_/SDF/sdf_db.sdf

> <Rec_index>
1

>  <PLIF_raw>
[[],[],[],[],[]]

>  <PLIF_ligidx>
[]

$$$$
203
  MOE2022           3D

 53 55  0  0  1  0  0  0  0  0999 V2000
    8.5900   21.0840   18.3880 C   0  0  0  0  0  0  0  0  0  0  0  0
    8.3530   22.2750   17.7120 C   0  0  0  0  0  0  0  0  0  0  0  0
    7.5330   20.2350   18.6930 C   0  0  0  0  0  0  0  0  0  0  0  0
    6.2280   20.5730   18.3300 C   0  0  0  0  0  0  0  0  0  0  0  0
    5.9950   21.7830   17.6750 C   0  0  0  0  0  0  0  0  0  0  0  0
    5.0810   19.6360   18.6720 C   0  0  0  0  0  0  0  0  0  0  0  0
    4.1840   19.1870   17.5170 C   0  0  0  0  0  0  0  0  0  0  0  0
    3.0360   18.3630   17.6890 N   0  0  0  0  0  0  0  0  0  0  0  0
    7.0550   22.6280   17.3610 C   0  0  0  0  0  0  0  0  0  0  0  0
    2.7760   17.5130   18.8120 C   0  0  0  0  0  0  0  0  0  0  0  0
    2.0600   18.3880   16.5700 C   0  0  0  0  0  0  0  0  0  0  0  0
    1.6830   16.5400   18.7780 C   0  0  0  0  0  0  0  0  0  0  0  0
    4.4420   19.5560   16.3840 O   0  0  0  0  0  0  0  0  0  0  0  0
    1.2540   15.8030   19.8350 C   0  0  0  0  0  0  0  0  0  0  0  0
    3.5080   17.6050   19.7860 O   0  0  0  0  0  0  0  0  0  0  0  0
    1.7920   15.8850   21.0740 O   0  0  0  0  0  0  0  0  0  0  0  0
    2.3510   17.3990   15.4580 C   0  0  0  0  0  0  0  0  0  0  0  0
    1.9290   17.5220   14.1890 C   0  0  0  0  0  0  0  0  0  0  0  0
    3.1140   16.1840   15.5800 C   0  0  0  0  0  0  0  0  0  0  0  0
    2.4090   16.3510   13.3370 C   0  0  1  0  0  0  0  0  0  0  0  0
    3.1720   15.5690   14.3920 C   0  0  0  0  0  0  0  0  0  0  0  0
    1.3020   15.5200   12.6950 C   0  0  0  0  0  0  0  0  0  0  0  0
    1.6390   14.6300   11.7360 N   0  0  0  0  0  0  0  0  0  0  0  0
    0.1390   15.6100   13.0900 O   0  0  0  0  0  0  0  0  0  0  0  0
    0.7000   13.6800   11.1570 C   0  0  0  0  0  0  0  0  0  0  0  0
    2.9870   14.3350   11.2640 C   0  0  0  0  0  0  0  0  0  0  0  0
    1.5450   12.4950   10.6910 C   0  0  2  0  0  0  0  0  0  0  0  0
    2.8560   13.1690   10.2860 C   0  0  0  0  0  0  0  0  0  0  0  0
    0.9620   11.8270    9.5910 O   0  0  0  0  0  0  0  0  0  0  0  0
    9.5770   20.8230   18.6700 H   0  0  0  0  0  0  0  0  0  0  0  0
    9.1620   22.9110   17.4650 H   0  0  0  0  0  0  0  0  0  0  0  0
    7.7280   19.3280   19.2040 H   0  0  0  0  0  0  0  0  0  0  0  0
    5.0080   22.0600   17.4060 H   0  0  0  0  0  0  0  0  0  0  0  0
    5.5030   18.7720   19.1510 H   0  0  0  0  0  0  0  0  0  0  0  0
    4.4800   20.1050   19.4330 H   0  0  0  0  0  0  0  0  0  0  0  0
    6.8730   23.5400   16.8540 H   0  0  0  0  0  0  0  0  0  0  0  0
    1.0510   18.2500   16.9310 H   0  0  0  0  0  0  0  0  0  0  0  0
    2.0160   19.3820   16.1460 H   0  0  0  0  0  0  0  0  0  0  0  0
    1.1980   16.3900   17.8510 H   0  0  0  0  0  0  0  0  0  0  0  0
    0.4610   15.1020   19.7710 H   0  0  0  0  0  0  0  0  0  0  0  0
    2.5370   16.5240   21.0810 H   0  0  0  0  0  0  0  0  0  0  0  0
    1.3420   18.3220   13.8160 H   0  0  0  0  0  0  0  0  0  0  0  0
    3.5640   15.8280   16.4700 H   0  0  0  0  0  0  0  0  0  0  0  0
    3.1000   16.7150   12.5900 H   0  0  0  0  0  0  0  0  0  0  0  0
    3.6770   14.6620   14.1980 H   0  0  0  0  0  0  0  0  0  0  0  0
   -0.0390   13.3520   11.8860 H   0  0  0  0  0  0  0  0  0  0  0  0
    0.1990   14.1430   10.3050 H   0  0  0  0  0  0  0  0  0  0  0  0
    3.4260   15.1990   10.7640 H   0  0  0  0  0  0  0  0  0  0  0  0
    3.6140   14.0290   12.0990 H   0  0  0  0  0  0  0  0  0  0  0  0
    1.7160   11.8120   11.5250 H   0  0  0  0  0  0  0  0  0  0  0  0
    2.7780   13.5590    9.2690 H   0  0  0  0  0  0  0  0  0  0  0  0
    3.7010   12.4860   10.3720 H   0  0  0  0  0  0  0  0  0  0  0  0
    1.5500   11.1230    9.3100 H   0  0  0  0  0  0  0  0  0  0  0  0
  1  2  2  0  0  0  0
  1  3  1  0  0  0  0
  1 30  1  0  0  0  0
  2  9  1  0  0  0  0
  2 31  1  0  0  0  0
  3  4  2  0  0  0  0
  3 32  1  0  0  0  0
  4  5  1  0  0  0  0
  4  6  1  0  0  0  0
  5  9  2  0  0  0  0
  5 33  1  0  0  0  0
  6  7  1  0  0  0  0
  6 34  1  0  0  0  0
  6 35  1  0  0  0  0
  7  8  1  0  0  0  0
  7 13  2  0  0  0  0
  8 10  1  0  0  0  0
  8 11  1  0  0  0  0
  9 36  1  0  0  0  0
 10 12  1  0  0  0  0
 10 15  2  0  0  0  0
 11 17  1  0  0  0  0
 11 37  1  0  0  0  0
 11 38  1  0  0  0  0
 12 14  2  0  0  0  0
 12 39  1  0  0  0  0
 14 16  1  0  0  0  0
 14 40  1  0  0  0  0
 16 41  1  0  0  0  0
 17 18  2  0  0  0  0
 17 19  1  0  0  0  0
 18 20  1  0  0  0  0
 18 42  1  0  0  0  0
 19 21  2  0  0  0  0
 19 43  1  0  0  0  0
 20 21  1  0  0  0  0
 20 22  1  0  0  0  0
 20 44  1  0  0  0  0
 21 45  1  0  0  0  0
 22 23  1  0  0  0  0
 22 24  2  0  0  0  0
 23 25  1  0  0  0  0
 23 26  1  0  0  0  0
 25 27  1  0  0  0  0
 25 46  1  0  0  0  0
 25 47  1  0  0  0  0
 26 28  1  0  0  0  0
 26 48  1  0  0  0  0
 26 49  1  0  0  0  0
 27 28  1  0  0  0  0
 27 29  1  0  0  0  0
 27 50  1  0  0  0  0
 28 51  1  0  0  0  0
 28 52  1  0  0  0  0
 29 53  1  0  0  0  0
M  END
> <rseq>
1

> <mseq>
204

> <S>
-6.541132

> <rmsd_refine>
2.166256

> <E_conf>
18.58567

> <E_score1>
-8.843908

> <E_refine>
-34.55843

> <E_score2>
-6.541132

>  <$File>
outputs/pdb_4j58_cleaned.pdb_2024_06_17__22_47_40_V2_BS398_MIN1_/SDF/sdf_db.sdf

> <Rec_index>
1

>  <PLIF_raw>
[[],[],[],[],[]]

>  <PLIF_ligidx>
[]

$$$$
180
  MOE2022           3D

 48 50  0  0  1  0  0  0  0  0999 V2000
    2.8500   12.2760   10.1270 C   0  0  0  0  0  0  0  0  0  0  0  0
    4.1370   12.7990   10.1740 C   0  0  0  0  0  0  0  0  0  0  0  0
    1.8540   12.8770   10.8870 C   0  0  0  0  0  0  0  0  0  0  0  0
    5.1110   12.2140    9.4350 F   0  0  0  0  0  0  0  0  0  0  0  0
    2.1400   13.9920   11.6940 C   0  0  0  0  0  0  0  0  0  0  0  0
    1.0980   14.6170   12.4870 C   0  0  0  0  0  0  0  0  0  0  0  0
    4.4540   13.9030   10.9540 C   0  0  0  0  0  0  0  0  0  0  0  0
    3.4530   14.4960   11.7140 C   0  0  0  0  0  0  0  0  0  0  0  0
    1.3330   15.1200   13.7560 N   0  0  0  0  0  0  0  0  0  0  0  0
   -0.2260   14.8600   12.2180 C   0  0  0  0  0  0  0  0  0  0  0  0
    0.1840   15.6680   14.2570 C   0  0  0  0  0  0  0  0  0  0  0  0
    0.1120   16.2610   15.5430 N   0  0  0  0  0  0  0  0  0  0  0  0
   -0.7940   15.5220   13.3110 C   0  0  0  0  0  0  0  0  0  0  0  0
   -0.4570   17.6190   15.5690 C   0  0  0  0  0  0  0  0  0  0  0  0
    1.3300   16.3210   16.3680 C   0  0  0  0  0  0  0  0  0  0  0  0
    1.8030   17.7800   16.4430 C   0  0  2  0  0  0  0  0  0  0  0  0
    2.7020   18.0240   17.7020 C   0  0  1  0  0  0  0  0  0  0  0  0
    0.4440   18.4990   16.4420 C   0  0  0  0  0  0  0  0  0  0  0  0
    2.6440   18.0740   15.1740 C   0  0  0  0  0  0  0  0  0  0  0  0
    3.5810   17.2830   14.9130 O   0  5  0  0  0  0  0  0  0  0  0  0
    2.3880   19.0860   14.4850 O   0  0  0  0  0  0  0  0  0  0  0  0
    3.2370   19.4400   17.8470 C   0  0  0  0  0  0  0  0  0  0  0  0
    2.2720   17.4490   19.0470 C   0  0  0  0  0  0  0  0  0  0  0  0
    1.0700   17.4590   19.3860 O   0  5  0  0  0  0  0  0  0  0  0  0
    2.5540   20.4030   17.6250 O   0  0  0  0  0  0  0  0  0  0  0  0
    4.6910   19.5940   18.2620 C   0  0  0  0  0  0  0  0  0  0  0  0
    5.0280   20.8710   18.8740 O   0  0  0  0  0  0  0  0  0  0  0  0
    3.1820   17.0140   19.7890 O   0  0  0  0  0  0  0  0  0  0  0  0
    6.4010   21.0220   19.2920 C   0  0  0  0  0  0  0  0  0  0  0  0
    2.6330   11.4340    9.5220 H   0  0  0  0  0  0  0  0  0  0  0  0
    0.8680   12.4890   10.8620 H   0  0  0  0  0  0  0  0  0  0  0  0
    5.4430   14.2840   10.9710 H   0  0  0  0  0  0  0  0  0  0  0  0
    3.6780   15.3420   12.3120 H   0  0  0  0  0  0  0  0  0  0  0  0
    2.2400   15.1180   14.2510 H   0  0  0  0  0  0  0  0  0  0  0  0
   -0.7250   14.5970   11.3220 H   0  0  0  0  0  0  0  0  0  0  0  0
   -1.7960   15.8490   13.4040 H   0  0  0  0  0  0  0  0  0  0  0  0
   -0.4910   18.0280   14.5680 H   0  0  0  0  0  0  0  0  0  0  0  0
   -1.4720   17.6070   15.9430 H   0  0  0  0  0  0  0  0  0  0  0  0
    1.0600   15.9620   17.3500 H   0  0  0  0  0  0  0  0  0  0  0  0
    2.1150   15.6580   16.0380 H   0  0  0  0  0  0  0  0  0  0  0  0
    3.5830   17.4490   17.4740 H   0  0  0  0  0  0  0  0  0  0  0  0
    0.5020   19.5190   16.0630 H   0  0  0  0  0  0  0  0  0  0  0  0
    0.0220   18.5250   17.4440 H   0  0  0  0  0  0  0  0  0  0  0  0
    4.9530   18.8150   18.9630 H   0  0  0  0  0  0  0  0  0  0  0  0
    5.3290   19.4430   17.4020 H   0  0  0  0  0  0  0  0  0  0  0  0
    6.6370   20.2960   20.0710 H   0  0  0  0  0  0  0  0  0  0  0  0
    7.0690   20.8680   18.4440 H   0  0  0  0  0  0  0  0  0  0  0  0
    6.5570   22.0270   19.6840 H   0  0  0  0  0  0  0  0  0  0  0  0
  1  2  2  0  0  0  0
  1  3  1  0  0  0  0
  1 30  1  0  0  0  0
  2  4  1  0  0  0  0
  2  7  1  0  0  0  0
  3  5  2  0  0  0  0
  3 31  1  0  0  0  0
  5  6  1  0  0  0  0
  5  8  1  0  0  0  0
  6  9  1  0  0  0  0
  6 10  2  0  0  0  0
  7  8  2  0  0  0  0
  7 32  1  0  0  0  0
  8 33  1  0  0  0  0
  9 11  1  0  0  0  0
  9 34  1  0  0  0  0
 10 13  1  0  0  0  0
 10 35  1  0  0  0  0
 11 12  1  0  0  0  0
 11 13  2  0  0  0  0
 12 14  1  0  0  0  0
 12 15  1  0  0  0  0
 13 36  1  0  0  0  0
 14 18  1  0  0  0  0
 14 37  1  0  0  0  0
 14 38  1  0  0  0  0
 15 16  1  0  0  0  0
 15 39  1  0  0  0  0
 15 40  1  0  0  0  0
 16 17  1  0  0  0  0
 16 18  1  0  0  0  0
 16 19  1  0  0  0  0
 17 22  1  0  0  0  0
 17 23  1  0  0  0  0
 17 41  1  0  0  0  0
 18 42  1  0  0  0  0
 18 43  1  0  0  0  0
 19 20  1  0  0  0  0
 19 21  2  0  0  0  0
 22 25  2  0  0  0  0
 22 26  1  0  0  0  0
 23 24  1  0  0  0  0
 23 28  2  0  0  0  0
 26 27  1  0  0  0  0
 26 44  1  0  0  0  0
 26 45  1  0  0  0  0
 27 29  1  0  0  0  0
 29 46  1  0  0  0  0
 29 47  1  0  0  0  0
 29 48  1  0  0  0  0
M  CHG  1  20  -1
M  CHG  1  24  -1
M  END
> <rseq>
1

> <mseq>
181

> <S>
-5.690587

> <rmsd_refine>
1.896154

> <E_conf>
-148.6008

> <E_score1>
-10.6582

> <E_refine>
-27.97674

> <E_score2>
-5.690587

>  <$File>
outputs/pdb_4j58_cleaned.pdb_2024_06_17__22_47_40_V2_BS398_MIN1_/SDF/sdf_db.sdf

> <Rec_index>
1

>  <PLIF_raw>
[[20,20,1,2,7,8,5,3],[823,826,1057,1057,1057,1057,1057,1057],[54,54,70,70,70,70,70,70],[7,7,10,10,10,10,10,10],[1.518690327,1.165568061,0.5,0.5,0.5,0.5,0.5,0.5]]

> <FP:PLIF>
1 43

>  <PLIF_ligidx>
[[20,20],[1,2,7,8,5,3]]

$$$$
181
  MOE2022           3D

 54 56  0  0  1  0  0  0  0  0999 V2000
    7.2590   21.1310   19.3300 C   0  0  0  0  0  0  0  0  0  0  0  0
    6.5040   20.0260   18.9550 C   0  0  0  0  0  0  0  0  0  0  0  0
    5.2040   20.2070   18.4860 C   0  0  0  0  0  0  0  0  0  0  0  0
    4.5100   19.0810   18.0810 O   0  0  0  0  0  0  0  0  0  0  0  0
    3.1810   19.0370   17.4790 C   0  0  1  0  0  0  0  0  0  0  0  0
    4.6440   21.4870   18.4170 C   0  0  0  0  0  0  0  0  0  0  0  0
    6.7140   22.4090   19.2470 C   0  0  0  0  0  0  0  0  0  0  0  0
    5.4080   22.5860   18.7960 C   0  0  0  0  0  0  0  0  0  0  0  0
    3.1600   19.5230   16.0250 C   0  0  0  0  0  0  0  0  0  0  0  0
    4.0280   20.2940   15.6160 O   0  0  0  0  0  0  0  0  0  0  0  0
    2.5720   17.6400   17.6620 C   0  0  0  0  0  0  0  0  0  0  0  0
    2.1120   19.1770   15.2360 N   0  0  0  0  0  0  0  0  0  0  0  0
    1.2030   17.5500   16.9820 C   0  0  0  0  0  0  0  0  0  0  0  0
    0.2660   18.4480   17.6240 N   0  0  0  0  0  0  0  0  0  0  0  0
    1.3610   17.9120   15.4790 C   0  0  1  0  0  0  0  0  0  0  0  0
    0.6580   16.2220   17.1550 N   0  0  0  0  0  0  0  0  0  0  0  0
    1.8690   19.9000   13.9760 C   0  0  0  0  0  0  0  0  0  0  0  0
    0.0710   17.9250   14.8260 O   0  0  0  0  0  0  0  0  0  0  0  0
    2.4970   19.2210   12.7610 C   0  0  0  0  0  0  0  0  0  0  0  0
    3.7070   19.2900   12.5470 O   0  0  0  0  0  0  0  0  0  0  0  0
    1.6710   18.6060   11.8990 O   0  0  0  0  0  0  0  0  0  0  0  0
    2.1320   18.0130   10.6600 C   0  0  0  0  0  0  0  0  0  0  0  0
    2.9260   16.7390   10.8620 C   0  0  0  0  0  0  0  0  0  0  0  0
    4.1190   16.5430   10.1670 C   0  0  0  0  0  0  0  0  0  0  0  0
    2.4590   15.7440   11.7170 C   0  0  0  0  0  0  0  0  0  0  0  0
    4.8380   15.3590   10.3150 C   0  0  0  0  0  0  0  0  0  0  0  0
    3.1730   14.5610   11.8690 C   0  0  0  0  0  0  0  0  0  0  0  0
    6.1220   15.1360    9.5490 C   0  0  0  0  0  0  0  0  0  0  0  0
    4.3580   14.3670   11.1660 C   0  0  0  0  0  0  0  0  0  0  0  0
    8.2530   21.0030   19.6720 H   0  0  0  0  0  0  0  0  0  0  0  0
    6.9190   19.0560   19.0170 H   0  0  0  0  0  0  0  0  0  0  0  0
    2.5590   19.7160   18.0450 H   0  0  0  0  0  0  0  0  0  0  0  0
    3.6540   21.6320   18.0730 H   0  0  0  0  0  0  0  0  0  0  0  0
    7.2940   23.2480   19.5280 H   0  0  0  0  0  0  0  0  0  0  0  0
    4.9970   23.5610   18.7350 H   0  0  0  0  0  0  0  0  0  0  0  0
    3.2380   16.9040   17.2110 H   0  0  0  0  0  0  0  0  0  0  0  0
    2.4820   17.4240   18.7270 H   0  0  0  0  0  0  0  0  0  0  0  0
    0.6030   19.3960   17.5380 H   0  0  0  0  0  0  0  0  0  0  0  0
    0.1870   18.1960   18.5980 H   0  0  0  0  0  0  0  0  0  0  0  0
    1.9210   17.1150   15.0060 H   0  0  0  0  0  0  0  0  0  0  0  0
    0.4970   16.0580   18.1360 H   0  0  0  0  0  0  0  0  0  0  0  0
    1.3090   15.5360   16.7990 H   0  0  0  0  0  0  0  0  0  0  0  0
    0.7990   20.0080   13.8040 H   0  0  0  0  0  0  0  0  0  0  0  0
    2.2660   20.9140   14.0420 H   0  0  0  0  0  0  0  0  0  0  0  0
   -0.6020   18.2240   15.4610 H   0  0  0  0  0  0  0  0  0  0  0  0
    1.2670   17.8050   10.0450 H   0  0  0  0  0  0  0  0  0  0  0  0
    2.7120   18.7480   10.1170 H   0  0  0  0  0  0  0  0  0  0  0  0
    4.4770   17.2980    9.5150 H   0  0  0  0  0  0  0  0  0  0  0  0
    1.5530   15.8810   12.2500 H   0  0  0  0  0  0  0  0  0  0  0  0
    2.8120   13.8050   12.5170 H   0  0  0  0  0  0  0  0  0  0  0  0
    5.9760   14.3740    8.7830 H   0  0  0  0  0  0  0  0  0  0  0  0
    6.4530   16.0520    9.0580 H   0  0  0  0  0  0  0  0  0  0  0  0
    6.9120   14.8000   10.2190 H   0  0  0  0  0  0  0  0  0  0  0  0
    4.8950   13.4610   11.2790 H   0  0  0  0  0  0  0  0  0  0  0  0
  1  2  1  0  0  0  0
  1  7  2  0  0  0  0
  1 30  1  0  0  0  0
  2  3  2  0  0  0  0
  2 31  1  0  0  0  0
  3  4  1  0  0  0  0
  3  6  1  0  0  0  0
  4  5  1  0  0  0  0
  5  9  1  0  0  0  0
  5 11  1  0  0  0  0
  5 32  1  0  0  0  0
  6  8  2  0  0  0  0
  6 33  1  0  0  0  0
  7  8  1  0  0  0  0
  7 34  1  0  0  0  0
  8 35  1  0  0  0  0
  9 10  2  0  0  0  0
  9 12  1  0  0  0  0
 11 13  1  0  0  0  0
 11 36  1  0  0  0  0
 11 37  1  0  0  0  0
 12 15  1  0  0  0  0
 12 17  1  0  0  0  0
 13 14  1  0  0  0  0
 13 15  1  0  0  0  0
 13 16  1  0  0  0  0
 14 38  1  0  0  0  0
 14 39  1  0  0  0  0
 15 18  1  0  0  0  0
 15 40  1  0  0  0  0
 16 41  1  0  0  0  0
 16 42  1  0  0  0  0
 17 19  1  0  0  0  0
 17 43  1  0  0  0  0
 17 44  1  0  0  0  0
 18 45  1  0  0  0  0
 19 20  2  0  0  0  0
 19 21  1  0  0  0  0
 21 22  1  0  0  0  0
 22 23  1  0  0  0  0
 22 46  1  0  0  0  0
 22 47  1  0  0  0  0
 23 24  1  0  0  0  0
 23 25  2  0  0  0  0
 24 26  2  0  0  0  0
 24 48  1  0  0  0  0
 25 27  1  0  0  0  0
 25 49  1  0  0  0  0
 26 28  1  0  0  0  0
 26 29  1  0  0  0  0
 27 29  2  0  0  0  0
 27 50  1  0  0  0  0
 28 51  1  0  0  0  0
 28 52  1  0  0  0  0
 28 53  1  0  0  0  0
 29 54  1  0  0  0  0
M  END
> <rseq>
1

> <mseq>
182

> <S>
-5.759264

> <rmsd_refine>
1.204714

> <E_conf>
-22.07352

> <E_score1>
-10.06602

> <E_refine>
-29.88428

> <E_score2>
-5.759264

>  <$File>
outputs/pdb_4j58_cleaned.pdb_2024_06_17__22_47_40_V2_BS398_MIN1_/SDF/sdf_db.sdf

> <Rec_index>
1

>  <PLIF_raw>
[[],[],[],[],[]]

>  <PLIF_ligidx>
[]

$$$$
182
  MOE2022           3D

 45 48  0  0  0  0  0  0  0  0999 V2000
    7.2050   20.8700   19.1240 C   0  0  0  0  0  0  0  0  0  0  0  0
    6.2590   19.8940   18.8270 C   0  0  0  0  0  0  0  0  0  0  0  0
    5.0200   20.2340   18.2660 C   0  0  0  0  0  0  0  0  0  0  0  0
    4.0370   19.1990   17.9300 C   0  0  0  0  0  0  0  0  0  0  0  0
    3.4640   19.1230   16.6560 C   0  0  0  0  0  0  0  0  0  0  0  0
    3.6150   18.2940   18.9050 C   0  0  0  0  0  0  0  0  0  0  0  0
    2.5760   17.3840   18.6760 C   0  0  0  0  0  0  0  0  0  0  0  0
    2.4470   18.2100   16.3900 C   0  0  0  0  0  0  0  0  0  0  0  0
    2.0590   16.5540   19.7610 C   0  0  0  0  0  0  0  0  0  0  0  0
    2.0140   17.3440   17.3910 C   0  0  0  0  0  0  0  0  0  0  0  0
    1.7810   18.1880   15.0320 C   0  0  0  0  0  0  0  0  0  0  0  0
    0.8680   15.9990   19.7560 N   0  0  0  0  0  0  0  0  0  0  0  0
    2.7120   16.3110   20.8770 N   0  0  0  0  0  0  0  0  0  0  0  0
    1.8940   15.5790   21.6020 N   0  5  0  0  0  0  0  0  0  0  0  0
    2.3770   17.2370   14.0950 N   0  0  0  0  0  0  0  0  0  0  0  0
    4.7540   21.6010   18.0660 C   0  0  0  0  0  0  0  0  0  0  0  0
    3.0330   17.5990   12.9420 C   0  0  0  0  0  0  0  0  0  0  0  0
    0.7710   15.3930   20.9190 N   0  0  0  0  0  0  0  0  0  0  0  0
    3.4020   16.5600   11.9710 C   0  0  0  0  0  0  0  0  0  0  0  0
    3.5370   22.0070   17.6040 O   0  0  0  0  0  0  0  0  0  0  0  0
    3.3000   18.7870   12.7720 O   0  0  0  0  0  0  0  0  0  0  0  0
    4.0670   16.9210   10.7890 C   0  0  0  0  0  0  0  0  0  0  0  0
    6.9290   22.2130   18.8810 C   0  0  0  0  0  0  0  0  0  0  0  0
    5.6990   22.5830   18.3540 C   0  0  0  0  0  0  0  0  0  0  0  0
    4.4690   15.9390    9.8910 C   0  0  0  0  0  0  0  0  0  0  0  0
    3.1250   15.1990   12.1960 C   0  0  0  0  0  0  0  0  0  0  0  0
    5.1480   16.3050    8.7660 O   0  0  0  0  0  0  0  0  0  0  0  0
    4.1990   14.5930   10.1200 C   0  0  0  0  0  0  0  0  0  0  0  0
    3.5170   14.2300   11.2760 C   0  0  0  0  0  0  0  0  0  0  0  0
    8.1410   20.5910   19.5340 H   0  0  0  0  0  0  0  0  0  0  0  0
    6.4840   18.8830   19.0300 H   0  0  0  0  0  0  0  0  0  0  0  0
    3.7920   19.7820   15.8920 H   0  0  0  0  0  0  0  0  0  0  0  0
    4.0590   18.3350   19.8630 H   0  0  0  0  0  0  0  0  0  0  0  0
    1.2330   16.6560   17.1860 H   0  0  0  0  0  0  0  0  0  0  0  0
    0.7340   17.9440   15.1530 H   0  0  0  0  0  0  0  0  0  0  0  0
    1.7760   19.1880   14.6180 H   0  0  0  0  0  0  0  0  0  0  0  0
    2.1880   16.2390   14.2680 H   0  0  0  0  0  0  0  0  0  0  0  0
    2.9320   21.2420   17.5340 H   0  0  0  0  0  0  0  0  0  0  0  0
    4.2770   17.9380   10.5790 H   0  0  0  0  0  0  0  0  0  0  0  0
    7.6570   22.9500   19.1000 H   0  0  0  0  0  0  0  0  0  0  0  0
    5.4780   23.6040   18.1770 H   0  0  0  0  0  0  0  0  0  0  0  0
    2.6160   14.8900   13.0720 H   0  0  0  0  0  0  0  0  0  0  0  0
    5.3390   15.5260    8.2090 H   0  0  0  0  0  0  0  0  0  0  0  0
    4.5050   13.8550    9.4250 H   0  0  0  0  0  0  0  0  0  0  0  0
    3.2980   13.2100   11.4590 H   0  0  0  0  0  0  0  0  0  0  0  0
  1  2  1  0  0  0  0
  1 23  2  0  0  0  0
  1 30  1  0  0  0  0
  2  3  2  0  0  0  0
  2 31  1  0  0  0  0
  3  4  1  0  0  0  0
  3 16  1  0  0  0  0
  4  5  1  0  0  0  0
  4  6  2  0  0  0  0
  5  8  2  0  0  0  0
  5 32  1  0  0  0  0
  6  7  1  0  0  0  0
  6 33  1  0  0  0  0
  7  9  1  0  0  0  0
  7 10  2  0  0  0  0
  8 10  1  0  0  0  0
  8 11  1  0  0  0  0
  9 12  1  0  0  0  0
  9 13  2  0  0  0  0
 10 34  1  0  0  0  0
 11 15  1  0  0  0  0
 11 35  1  0  0  0  0
 11 36  1  0  0  0  0
 12 18  2  0  0  0  0
 13 14  1  0  0  0  0
 14 18  1  0  0  0  0
 15 17  1  0  0  0  0
 15 37  1  0  0  0  0
 16 20  1  0  0  0  0
 16 24  2  0  0  0  0
 17 19  1  0  0  0  0
 17 21  2  0  0  0  0
 19 22  2  0  0  0  0
 19 26  1  0  0  0  0
 20 38  1  0  0  0  0
 22 25  1  0  0  0  0
 22 39  1  0  0  0  0
 23 24  1  0  0  0  0
 23 40  1  0  0  0  0
 24 41  1  0  0  0  0
 25 27  1  0  0  0  0
 25 28  2  0  0  0  0
 26 29  2  0  0  0  0
 26 42  1  0  0  0  0
 27 43  1  0  0  0  0
 28 29  1  0  0  0  0
 28 44  1  0  0  0  0
 29 45  1  0  0  0  0
M  CHG  1  14  -1
M  END
> <rseq>
1

> <mseq>
183

> <S>
-6.288234

> <rmsd_refine>
0.7850872

> <E_conf>
-77.96622

> <E_score1>
-11.44866

> <E_refine>
-35.69255

> <E_score2>
-6.288234

>  <$File>
outputs/pdb_4j58_cleaned.pdb_2024_06_17__22_47_40_V2_BS398_MIN1_/SDF/sdf_db.sdf

> <Rec_index>
1

>  <PLIF_raw>
[[18,18,14,14,18,18,4,6,7,10,8,5],[1206,1212,1206,1212,1206,1212,954,954,954,954,954,954],[81,81,81,81,81,81,62,62,62,62,62,62],[2,2,7,7,7,7,10,10,10,10,10,10],[3.2,1.1,2.025256045,1.661584296,3.06976402,4.060006412,0.8,0.8,0.8,0.8,0.8,0.8]]

> <FP:PLIF>
21 17 18 24 25

>  <PLIF_ligidx>
[[4,6,7,10,8,5],[18,18],18,[14,14,18,18],18]

$$$$
183
  MOE2022           3D

 57 60  0  0  1  0  0  0  0  0999 V2000
    7.5320   20.5760   18.8950 C   0  0  0  0  0  0  0  0  0  0  0  0
    8.5660   21.4140   18.4980 C   0  0  0  0  0  0  0  0  0  0  0  0
    6.3440   20.5010   18.1540 C   0  0  0  0  0  0  0  0  0  0  0  0
    5.3100   19.5740   18.5890 C   0  0  0  0  0  0  0  0  0  0  0  0
    4.2340   19.1770   17.8600 C   0  0  0  0  0  0  0  0  0  0  0  0
    8.4280   22.1960   17.3580 C   0  0  0  0  0  0  0  0  0  0  0  0
    3.3080   18.1530   18.3380 C   0  0  0  0  0  0  0  0  0  0  0  0
    2.2890   17.6630   17.5050 N   0  0  0  0  0  0  0  0  0  0  0  0
    3.4490   17.6720   19.4580 O   0  0  0  0  0  0  0  0  0  0  0  0
    6.2150   21.3060   17.0110 C   0  0  0  0  0  0  0  0  0  0  0  0
    7.2510   22.1440   16.6180 C   0  0  0  0  0  0  0  0  0  0  0  0
    2.2930   18.0050   16.0560 C   0  0  0  0  0  0  0  0  0  0  0  0
    1.1830   16.7230   17.9250 C   0  0  2  0  0  0  0  0  0  0  0  0
   -0.1390   17.1460   17.2580 C   0  0  0  0  0  0  0  0  0  0  0  0
    0.9540   16.4800   19.4310 C   0  0  0  0  0  0  0  0  0  0  0  0
    1.3550   17.1430   15.1800 C   0  0  2  0  0  0  0  0  0  0  0  0
    1.3040   17.5030   13.7480 N   0  3  0  0  0  0  0  0  0  0  0  0
   -0.0820   17.1450   15.7230 C   0  0  0  0  0  0  0  0  0  0  0  0
    2.5640   17.3680   12.9420 C   0  0  2  0  0  0  0  0  0  0  0  0
    2.6240   18.4150   11.8590 C   0  0  0  0  0  0  0  0  0  0  0  0
    3.2340   18.2170   10.6770 C   0  0  0  0  0  0  0  0  0  0  0  0
    3.8980   16.9810   10.3650 N   0  0  0  0  0  0  0  0  0  0  0  0
    4.6970   16.8920    9.2010 C   0  0  0  0  0  0  0  0  0  0  0  0
    3.7810   15.8740   11.2330 C   0  0  0  0  0  0  0  0  0  0  0  0
    4.6440   17.8060    8.3670 O   0  0  0  0  0  0  0  0  0  0  0  0
    5.5390   15.7400    9.0550 C   0  0  0  0  0  0  0  0  0  0  0  0
    2.7420   15.9650   12.3390 C   0  0  0  0  0  0  0  0  0  0  0  0
    4.5580   14.7700   11.0250 C   0  0  0  0  0  0  0  0  0  0  0  0
    5.4780   14.7140    9.9430 C   0  0  0  0  0  0  0  0  0  0  0  0
    7.6510   19.9800   19.7630 H   0  0  0  0  0  0  0  0  0  0  0  0
    9.4620   21.4550   19.0630 H   0  0  0  0  0  0  0  0  0  0  0  0
    5.4610   19.1600   19.5510 H   0  0  0  0  0  0  0  0  0  0  0  0
    4.0620   19.5900   16.9040 H   0  0  0  0  0  0  0  0  0  0  0  0
    9.2190   22.8290   17.0550 H   0  0  0  0  0  0  0  0  0  0  0  0
    5.3250   21.2860   16.4390 H   0  0  0  0  0  0  0  0  0  0  0  0
    7.1460   22.7480   15.7530 H   0  0  0  0  0  0  0  0  0  0  0  0
    2.0160   19.0440   15.9400 H   0  0  0  0  0  0  0  0  0  0  0  0
    3.2970   17.9100   15.6680 H   0  0  0  0  0  0  0  0  0  0  0  0
    1.4340   15.7580   17.5170 H   0  0  0  0  0  0  0  0  0  0  0  0
   -0.9460   16.4830   17.5740 H   0  0  0  0  0  0  0  0  0  0  0  0
   -0.3810   18.1540   17.5990 H   0  0  0  0  0  0  0  0  0  0  0  0
    0.8360   17.4210   19.9640 H   0  0  0  0  0  0  0  0  0  0  0  0
    0.0570   15.8830   19.5930 H   0  0  0  0  0  0  0  0  0  0  0  0
    1.7810   15.9200   19.8670 H   0  0  0  0  0  0  0  0  0  0  0  0
    1.7160   16.1150   15.2540 H   0  0  0  0  0  0  0  0  0  0  0  0
    0.6030   16.9250   13.3060 H   0  0  0  0  0  0  0  0  0  0  0  0
    0.9860   18.4590   13.6780 H   0  0  0  0  0  0  0  0  0  0  0  0
   -0.5920   16.2570   15.3470 H   0  0  0  0  0  0  0  0  0  0  0  0
   -0.6160   18.0260   15.3620 H   0  0  0  0  0  0  0  0  0  0  0  0
    3.4260   17.5490   13.5700 H   0  0  0  0  0  0  0  0  0  0  0  0
    2.1670   19.3450   12.0790 H   0  0  0  0  0  0  0  0  0  0  0  0
    3.2830   18.9490    9.9100 H   0  0  0  0  0  0  0  0  0  0  0  0
    6.2010   15.7080    8.2290 H   0  0  0  0  0  0  0  0  0  0  0  0
    2.9720   15.2630   13.1290 H   0  0  0  0  0  0  0  0  0  0  0  0
    1.7950   15.6410   11.9270 H   0  0  0  0  0  0  0  0  0  0  0  0
    4.4840   13.9300   11.6660 H   0  0  0  0  0  0  0  0  0  0  0  0
    6.0970   13.8610    9.8270 H   0  0  0  0  0  0  0  0  0  0  0  0
  1  2  1  0  0  0  0
  1  3  2  0  0  0  0
  1 30  1  0  0  0  0
  2  6  2  0  0  0  0
  2 31  1  0  0  0  0
  3  4  1  0  0  0  0
  3 10  1  0  0  0  0
  4  5  2  0  0  0  0
  4 32  1  0  0  0  0
  5  7  1  0  0  0  0
  5 33  1  0  0  0  0
  6 11  1  0  0  0  0
  6 34  1  0  0  0  0
  7  8  1  0  0  0  0
  7  9  2  0  0  0  0
  8 12  1  0  0  0  0
  8 13  1  0  0  0  0
 10 11  2  0  0  0  0
 10 35  1  0  0  0  0
 11 36  1  0  0  0  0
 12 16  1  0  0  0  0
 12 37  1  0  0  0  0
 12 38  1  0  0  0  0
 13 14  1  0  0  0  0
 13 15  1  0  0  0  0
 13 39  1  0  0  0  0
 14 18  1  0  0  0  0
 14 40  1  0  0  0  0
 14 41  1  0  0  0  0
 15 42  1  0  0  0  0
 15 43  1  0  0  0  0
 15 44  1  0  0  0  0
 16 17  1  0  0  0  0
 16 18  1  0  0  0  0
 16 45  1  0  0  0  0
 17 19  1  0  0  0  0
 17 46  1  0  0  0  0
 17 47  1  0  0  0  0
 18 48  1  0  0  0  0
 18 49  1  0  0  0  0
 19 20  1  0  0  0  0
 19 27  1  0  0  0  0
 19 50  1  0  0  0  0
 20 21  2  0  0  0  0
 20 51  1  0  0  0  0
 21 22  1  0  0  0  0
 21 52  1  0  0  0  0
 22 23  1  0  0  0  0
 22 24  1  0  0  0  0
 23 25  2  0  0  0  0
 23 26  1  0  0  0  0
 24 27  1  0  0  0  0
 24 28  2  0  0  0  0
 26 29  2  0  0  0  0
 26 53  1  0  0  0  0
 27 54  1  0  0  0  0
 27 55  1  0  0  0  0
 28 29  1  0  0  0  0
 28 56  1  0  0  0  0
 29 57  1  0  0  0  0
M  CHG  1  17   1
M  END
> <rseq>
1

> <mseq>
184

> <S>
-6.373254

> <rmsd_refine>
1.035953

> <E_conf>
-64.3227

> <E_score1>
-9.090418

> <E_refine>
-33.83281

> <E_score2>
-6.373254

>  <$File>
outputs/pdb_4j58_cleaned.pdb_2024_06_17__22_47_40_V2_BS398_MIN1_/SDF/sdf_db.sdf

> <Rec_index>
1

>  <PLIF_raw>
[[22,23,26,29,28,24,1,3,10,11,6,2],[823,823,823,823,823,823,826,826,826,826,826,826],[54,54,54,54,54,54,54,54,54,54,54,54],[10,10,10,10,10,10,10,10,10,10,10,10],[0.9,0.9,0.9,0.9,0.9,0.9,0.5,0.5,0.5,0.5,0.5,0.5]]

> <FP:PLIF>
2

>  <PLIF_ligidx>
[[22,23,26,29,28,24,1,3,10,11,6,2]]

$$$$
184
  MOE2022           3D

 53 56  0  0  1  0  0  0  0  0999 V2000
    7.5090   20.6520   18.6070 C   0  0  0  0  0  0  0  0  0  0  0  0
    7.0840   21.0250   17.3410 C   0  0  0  0  0  0  0  0  0  0  0  0
    6.6560   19.9300   19.4310 C   0  0  0  0  0  0  0  0  0  0  0  0
    5.3900   19.5560   18.9830 C   0  0  0  0  0  0  0  0  0  0  0  0
    5.8100   20.6620   16.9040 C   0  0  0  0  0  0  0  0  0  0  0  0
    5.4580   21.1370   15.6730 O   0  0  0  0  0  0  0  0  0  0  0  0
    4.9410   19.8830   17.7000 C   0  0  0  0  0  0  0  0  0  0  0  0
    3.5210   19.4210   17.2820 C   0  0  2  0  0  0  0  0  0  0  0  0
    3.2230   17.9690   17.5030 N   0  0  0  0  0  0  0  0  0  0  0  0
    3.2120   19.6510   15.8690 N   0  0  0  0  0  0  0  0  0  0  0  0
    2.4330   17.5470   16.3250 C   0  0  2  0  0  0  0  0  0  0  0  0
    2.6750   18.6580   15.3470 C   0  0  0  0  0  0  0  0  0  0  0  0
    2.2280   18.6440   13.8960 C   0  0  2  0  0  0  0  0  0  0  0  0
    0.9270   17.3740   16.6210 C   0  0  0  0  0  0  0  0  0  0  0  0
    2.2990   17.2990   13.1670 C   0  0  0  0  0  0  0  0  0  0  0  0
    2.5210   17.7230   18.7890 C   0  0  0  0  0  0  0  0  0  0  0  0
    3.0100   19.5830   12.9630 C   0  0  0  0  0  0  0  0  0  0  0  0
    2.2660   17.7100   11.6910 C   0  0  1  0  0  0  0  0  0  0  0  0
    1.7450   16.4810   18.8110 N   0  0  0  0  0  0  0  0  0  0  0  0
    2.9750   18.9720   11.6510 O   0  0  0  0  0  0  0  0  0  0  0  0
    2.7770   16.6980   10.6830 C   0  0  0  0  0  0  0  0  0  0  0  0
    1.5150   15.8510   20.0470 C   0  0  0  0  0  0  0  0  0  0  0  0
    4.0930   16.3910   10.6970 O   0  0  0  0  0  0  0  0  0  0  0  0
    0.6760   16.4310   17.8050 C   0  0  0  0  0  0  0  0  0  0  0  0
    0.6120   14.9670   20.1110 O   0  0  0  0  0  0  0  0  0  0  0  0
    2.0280   16.1500    9.8730 O   0  0  0  0  0  0  0  0  0  0  0  0
    2.2140   16.1930   21.0390 O   0  5  0  0  0  0  0  0  0  0  0  0
    4.6440   15.4800    9.7070 C   0  0  0  0  0  0  0  0  0  0  0  0
    6.1060   15.1440    9.9730 C   0  0  0  0  0  0  0  0  0  0  0  0
    8.4750   20.9230   18.9470 H   0  0  0  0  0  0  0  0  0  0  0  0
    7.7230   21.5910   16.7130 H   0  0  0  0  0  0  0  0  0  0  0  0
    6.9760   19.6640   20.4030 H   0  0  0  0  0  0  0  0  0  0  0  0
    4.7630   19.0180   19.6400 H   0  0  0  0  0  0  0  0  0  0  0  0
    4.5480   20.8330   15.4710 H   0  0  0  0  0  0  0  0  0  0  0  0
    2.8050   20.0030   17.8470 H   0  0  0  0  0  0  0  0  0  0  0  0
    2.8430   16.6160   15.9580 H   0  0  0  0  0  0  0  0  0  0  0  0
    1.1940   18.9610   13.8700 H   0  0  0  0  0  0  0  0  0  0  0  0
    0.5090   18.3500   16.8720 H   0  0  0  0  0  0  0  0  0  0  0  0
    0.4080   16.9950   15.7410 H   0  0  0  0  0  0  0  0  0  0  0  0
    3.2520   16.8130   13.3840 H   0  0  0  0  0  0  0  0  0  0  0  0
    1.4700   16.6370   13.4200 H   0  0  0  0  0  0  0  0  0  0  0  0
    3.2410   17.7300   19.5930 H   0  0  0  0  0  0  0  0  0  0  0  0
    1.8360   18.5380   18.9700 H   0  0  0  0  0  0  0  0  0  0  0  0
    2.5640   20.5780   12.9190 H   0  0  0  0  0  0  0  0  0  0  0  0
    4.0550   19.6580   13.2650 H   0  0  0  0  0  0  0  0  0  0  0  0
    1.2390   17.9400   11.4380 H   0  0  0  0  0  0  0  0  0  0  0  0
    0.5690   15.4210   17.4430 H   0  0  0  0  0  0  0  0  0  0  0  0
   -0.2740   16.6750   18.2600 H   0  0  0  0  0  0  0  0  0  0  0  0
    4.0670   14.5540    9.7140 H   0  0  0  0  0  0  0  0  0  0  0  0
    4.5600   15.9420    8.7230 H   0  0  0  0  0  0  0  0  0  0  0  0
    6.6950   16.0600    9.9970 H   0  0  0  0  0  0  0  0  0  0  0  0
    6.1850   14.6260   10.9260 H   0  0  0  0  0  0  0  0  0  0  0  0
    6.4780   14.4940    9.1810 H   0  0  0  0  0  0  0  0  0  0  0  0
  1  2  1  0  0  0  0
  1  3  2  0  0  0  0
  1 30  1  0  0  0  0
  2  5  2  0  0  0  0
  2 31  1  0  0  0  0
  3  4  1  0  0  0  0
  3 32  1  0  0  0  0
  4  7  2  0  0  0  0
  4 33  1  0  0  0  0
  5  6  1  0  0  0  0
  5  7  1  0  0  0  0
  6 34  1  0  0  0  0
  7  8  1  0  0  0  0
  8  9  1  0  0  0  0
  8 10  1  0  0  0  0
  8 35  1  0  0  0  0
  9 11  1  0  0  0  0
  9 16  1  0  0  0  0
 10 12  2  0  0  0  0
 11 12  1  0  0  0  0
 11 14  1  0  0  0  0
 11 36  1  0  0  0  0
 12 13  1  0  0  0  0
 13 15  1  0  0  0  0
 13 17  1  0  0  0  0
 13 37  1  0  0  0  0
 14 24  1  0  0  0  0
 14 38  1  0  0  0  0
 14 39  1  0  0  0  0
 15 18  1  0  0  0  0
 15 40  1  0  0  0  0
 15 41  1  0  0  0  0
 16 19  1  0  0  0  0
 16 42  1  0  0  0  0
 16 43  1  0  0  0  0
 17 20  1  0  0  0  0
 17 44  1  0  0  0  0
 17 45  1  0  0  0  0
 18 20  1  0  0  0  0
 18 21  1  0  0  0  0
 18 46  1  0  0  0  0
 19 22  1  0  0  0  0
 19 24  1  0  0  0  0
 21 23  1  0  0  0  0
 21 26  2  0  0  0  0
 22 25  2  0  0  0  0
 22 27  1  0  0  0  0
 23 28  1  0  0  0  0
 24 47  1  0  0  0  0
 24 48  1  0  0  0  0
 28 29  1  0  0  0  0
 28 49  1  0  0  0  0
 28 50  1  0  0  0  0
 29 51  1  0  0  0  0
 29 52  1  0  0  0  0
 29 53  1  0  0  0  0
M  CHG  1  27  -1
M  END
> <rseq>
1

> <mseq>
185

> <S>
-6.453122

> <rmsd_refine>
2.014551

> <E_conf>
-182.1095

> <E_score1>
-9.915838

> <E_refine>
-40.28204

> <E_score2>
-6.453122

>  <$File>
outputs/pdb_4j58_cleaned.pdb_2024_06_17__22_47_40_V2_BS398_MIN1_/SDF/sdf_db.sdf

> <Rec_index>
1

>  <PLIF_raw>
[[9,25,25,25],[954,1212,1206,1212],[62,81,81,81],[2,2,7,7],[3,8.5,1.085146129,4.362005905]]

> <FP:PLIF>
20 23 17 18 24 25

>  <PLIF_ligidx>
[9,9,25,25,[25,25],25]

$$$$
185
  MOE2022           3D

 45 46  0  0  0  0  0  0  0  0999 V2000
    2.1610   15.4890   21.4640 O   0  0  0  0  0  0  0  0  0  0  0  0
    1.1260   15.9160   20.8750 C   0  0  0  0  0  0  0  0  0  0  0  0
    0.0220   15.9730   21.4850 O   0  5  0  0  0  0  0  0  0  0  0  0
    1.1950   16.3210   19.4610 C   0  0  0  0  0  0  0  0  0  0  0  0
    0.2100   16.6620   18.8060 O   0  0  0  0  0  0  0  0  0  0  0  0
    2.4220   16.3010   18.8360 N   0  0  0  0  0  0  0  0  0  0  0  0
    2.6420   16.6500   17.4310 C   0  0  0  0  0  0  0  0  0  0  0  0
    3.3300   17.9910   17.1780 C   0  0  0  0  0  0  0  0  0  0  0  0
    3.4550   18.4780   15.8680 C   0  0  0  0  0  0  0  0  0  0  0  0
    4.0440   19.7350   15.6430 C   0  0  0  0  0  0  0  0  0  0  0  0
    3.8600   18.7470   18.2280 C   0  0  0  0  0  0  0  0  0  0  0  0
    4.1370   20.2670   14.3820 O   0  0  0  0  0  0  0  0  0  0  0  0
    4.5690   20.4710   16.6970 C   0  0  0  0  0  0  0  0  0  0  0  0
    4.5020   19.9780   18.0070 C   0  0  0  0  0  0  0  0  0  0  0  0
    5.0900   20.7270   19.1230 C   0  0  0  0  0  0  0  0  0  0  0  0
    3.0440   17.6330   14.7900 N   0  0  0  0  0  0  0  0  0  0  0  0
    2.1830   17.9590   13.7690 C   0  0  0  0  0  0  0  0  0  0  0  0
    5.3000   21.9670   19.0120 O   0  0  0  0  0  0  0  0  0  0  0  0
    1.8580   16.8620   12.7740 C   0  0  0  0  0  0  0  0  0  0  0  0
    5.3990   20.1280   20.1910 O   0  5  0  0  0  0  0  0  0  0  0  0
    2.9800   16.5090   11.8020 C   0  0  0  0  0  0  0  0  0  0  0  0
    1.7060   19.0750   13.6880 O   0  0  0  0  0  0  0  0  0  0  0  0
    3.5370   15.2290   11.8620 C   0  0  0  0  0  0  0  0  0  0  0  0
    3.4490   17.4180   10.8370 C   0  0  0  0  0  0  0  0  0  0  0  0
    2.8920   18.8250   10.7120 C   0  0  0  0  0  0  0  0  0  0  0  0
    4.5500   14.8710   10.9750 C   0  0  0  0  0  0  0  0  0  0  0  0
    5.1070   13.6280   11.0470 O   0  0  0  0  0  0  0  0  0  0  0  0
    4.4630   17.0340    9.9550 C   0  0  0  0  0  0  0  0  0  0  0  0
    5.0180   15.7630   10.0190 C   0  0  0  0  0  0  0  0  0  0  0  0
    3.2390   16.0050   19.3950 H   0  0  0  0  0  0  0  0  0  0  0  0
    3.2310   15.8650   16.9770 H   0  0  0  0  0  0  0  0  0  0  0  0
    1.7020   16.6310   16.8960 H   0  0  0  0  0  0  0  0  0  0  0  0
    3.7890   18.3890   19.2220 H   0  0  0  0  0  0  0  0  0  0  0  0
    3.5170   19.7910   13.7940 H   0  0  0  0  0  0  0  0  0  0  0  0
    5.0260   21.4090   16.5070 H   0  0  0  0  0  0  0  0  0  0  0  0
    3.3480   16.6480   14.8300 H   0  0  0  0  0  0  0  0  0  0  0  0
    1.5650   15.9790   13.3250 H   0  0  0  0  0  0  0  0  0  0  0  0
    0.9750   17.1360   12.2130 H   0  0  0  0  0  0  0  0  0  0  0  0
    3.1950   14.5260   12.5770 H   0  0  0  0  0  0  0  0  0  0  0  0
    3.3010   19.4660   11.4920 H   0  0  0  0  0  0  0  0  0  0  0  0
    3.1530   19.2660    9.7490 H   0  0  0  0  0  0  0  0  0  0  0  0
    1.8050   18.8300   10.7840 H   0  0  0  0  0  0  0  0  0  0  0  0
    4.7320   13.1120   11.7910 H   0  0  0  0  0  0  0  0  0  0  0  0
    4.8120   17.7150    9.2220 H   0  0  0  0  0  0  0  0  0  0  0  0
    5.7880   15.4770    9.3490 H   0  0  0  0  0  0  0  0  0  0  0  0
  1  2  2  0  0  0  0
  2  3  1  0  0  0  0
  2  4  1  0  0  0  0
  4  5  2  0  0  0  0
  4  6  1  0  0  0  0
  6  7  1  0  0  0  0
  6 30  1  0  0  0  0
  7  8  1  0  0  0  0
  7 31  1  0  0  0  0
  7 32  1  0  0  0  0
  8  9  2  0  0  0  0
  8 11  1  0  0  0  0
  9 10  1  0  0  0  0
  9 16  1  0  0  0  0
 10 12  1  0  0  0  0
 10 13  2  0  0  0  0
 11 14  2  0  0  0  0
 11 33  1  0  0  0  0
 12 34  1  0  0  0  0
 13 14  1  0  0  0  0
 13 35  1  0  0  0  0
 14 15  1  0  0  0  0
 15 18  2  0  0  0  0
 15 20  1  0  0  0  0
 16 17  1  0  0  0  0
 16 36  1  0  0  0  0
 17 19  1  0  0  0  0
 17 22  2  0  0  0  0
 19 21  1  0  0  0  0
 19 37  1  0  0  0  0
 19 38  1  0  0  0  0
 21 23  2  0  0  0  0
 21 24  1  0  0  0  0
 23 26  1  0  0  0  0
 23 39  1  0  0  0  0
 24 25  1  0  0  0  0
 24 28  2  0  0  0  0
 25 40  1  0  0  0  0
 25 41  1  0  0  0  0
 25 42  1  0  0  0  0
 26 27  1  0  0  0  0
 26 29  2  0  0  0  0
 27 43  1  0  0  0  0
 28 29  1  0  0  0  0
 28 44  1  0  0  0  0
 29 45  1  0  0  0  0
M  CHG  1   3  -1
M  CHG  1  20  -1
M  END
> <rseq>
1

> <mseq>
186

> <S>
-6.092858

> <rmsd_refine>
1.25016

> <E_conf>
-76.22369

> <E_score1>
-10.40955

> <E_refine>
-44.63739

> <E_score2>
-6.092858

>  <$File>
outputs/pdb_4j58_cleaned.pdb_2024_06_17__22_47_40_V2_BS398_MIN1_/SDF/sdf_db.sdf

> <Rec_index>
1

>  <PLIF_raw>
[[6,27,3,20,1,1,3,3,18,20],[1617,1056,1206,1499,1206,1212,1206,1212,1872,1866],[110,70,81,101,81,81,81,81,125,125],[1,3,2,4,7,7,7,7,7,7],[1,2.8,7.3,2.6,1.232345105,1.363143315,5.22292983,2.250138384,1.531894058,0.5747043214]]

> <FP:PLIF>
3 4 17 18 24 25 11 12 26 13

>  <PLIF_ligidx>
[27,27,3,3,[1,1,3,3],3,20,20,6,[18,20]]

$$$$
186
  MOE2022           3D

 51 53  0  0  1  0  0  0  0  0999 V2000
    6.1420   20.9520   18.3590 C   0  0  0  0  0  0  0  0  0  0  0  0
    5.4480   21.9640   17.7040 C   0  0  0  0  0  0  0  0  0  0  0  0
    5.5060   19.7520   18.6570 C   0  0  0  0  0  0  0  0  0  0  0  0
    4.1150   21.7750   17.3500 C   0  0  0  0  0  0  0  0  0  0  0  0
    4.1680   19.5430   18.2960 C   0  0  0  0  0  0  0  0  0  0  0  0
    3.4770   20.5760   17.6460 C   0  0  0  0  0  0  0  0  0  0  0  0
    3.4990   18.2800   18.6280 C   0  0  0  0  0  0  0  0  0  0  0  0
    2.6450   17.6730   17.7150 N   0  0  0  0  0  0  0  0  0  0  0  0
    3.0550   17.6660   16.2950 C   0  0  0  0  0  0  0  0  0  0  0  0
    3.6930   17.7250   19.7030 O   0  0  0  0  0  0  0  0  0  0  0  0
    1.7120   16.5690   18.1230 C   0  0  1  0  0  0  0  0  0  0  0  0
    1.0770   16.8290   19.4140 N   0  0  0  0  0  0  0  0  0  0  0  0
    0.6070   16.3050   17.0650 C   0  0  0  0  0  0  0  0  0  0  0  0
    1.0150   16.3430   15.6070 N   0  3  1  0  0  0  0  0  0  0  0  0
   -0.1760   16.2230   14.6850 C   0  0  0  0  0  0  0  0  0  0  0  0
    0.0340   16.5740   13.1990 C   0  0  0  0  0  0  0  0  0  0  0  0
    1.2180   15.8790   12.5520 C   0  0  0  0  0  0  0  0  0  0  0  0
    0.6300   15.7610   20.1760 C   0  0  0  0  0  0  0  0  0  0  0  0
    2.1970   16.6160   11.8890 C   0  0  0  0  0  0  0  0  0  0  0  0
    1.8730   17.5400   15.3370 C   0  0  0  0  0  0  0  0  0  0  0  0
    0.5450   15.9540   21.4150 O   0  0  0  0  0  0  0  0  0  0  0  0
    0.3170   14.6870   19.6010 O   0  5  0  0  0  0  0  0  0  0  0  0
    3.2940   15.9840   11.2810 C   0  0  0  0  0  0  0  0  0  0  0  0
    1.3240   14.4940   12.6030 C   0  0  0  0  0  0  0  0  0  0  0  0
    4.3270   16.7680   10.5950 C   0  0  0  0  0  0  0  0  0  0  0  0
    2.3990   13.8490   12.0050 C   0  0  0  0  0  0  0  0  0  0  0  0
    3.3790   14.5860   11.3520 C   0  0  0  0  0  0  0  0  0  0  0  0
    4.2210   18.0220   10.5360 O   0  0  0  0  0  0  0  0  0  0  0  0
    5.3460   16.1910   10.1260 O   0  5  0  0  0  0  0  0  0  0  0  0
    7.1560   21.0960   18.6320 H   0  0  0  0  0  0  0  0  0  0  0  0
    5.9330   22.8780   17.4760 H   0  0  0  0  0  0  0  0  0  0  0  0
    6.0430   18.9930   19.1620 H   0  0  0  0  0  0  0  0  0  0  0  0
    3.5840   22.5490   16.8580 H   0  0  0  0  0  0  0  0  0  0  0  0
    2.4580   20.4490   17.3860 H   0  0  0  0  0  0  0  0  0  0  0  0
    3.6190   18.5480   16.0260 H   0  0  0  0  0  0  0  0  0  0  0  0
    3.7290   16.8370   16.1240 H   0  0  0  0  0  0  0  0  0  0  0  0
    2.3060   15.6690   18.2150 H   0  0  0  0  0  0  0  0  0  0  0  0
    1.5890   17.5180   19.9830 H   0  0  0  0  0  0  0  0  0  0  0  0
    0.1300   15.3660   17.3140 H   0  0  0  0  0  0  0  0  0  0  0  0
   -0.1690   17.0360   17.2500 H   0  0  0  0  0  0  0  0  0  0  0  0
    1.5950   15.5300   15.4460 H   0  0  0  0  0  0  0  0  0  0  0  0
   -0.5790   15.2200   14.7300 H   0  0  0  0  0  0  0  0  0  0  0  0
   -0.9930   16.8370   15.0420 H   0  0  0  0  0  0  0  0  0  0  0  0
   -0.8700   16.3000   12.6560 H   0  0  0  0  0  0  0  0  0  0  0  0
    0.1500   17.6550   13.1150 H   0  0  0  0  0  0  0  0  0  0  0  0
    2.1130   17.6710   11.8410 H   0  0  0  0  0  0  0  0  0  0  0  0
    1.2960   18.4530   15.4000 H   0  0  0  0  0  0  0  0  0  0  0  0
    2.2590   17.5370   14.3270 H   0  0  0  0  0  0  0  0  0  0  0  0
    0.5810   13.9270   13.0940 H   0  0  0  0  0  0  0  0  0  0  0  0
    2.4700   12.7930   12.0440 H   0  0  0  0  0  0  0  0  0  0  0  0
    4.1960   14.0800   10.9040 H   0  0  0  0  0  0  0  0  0  0  0  0
  1  2  2  0  0  0  0
  1  3  1  0  0  0  0
  1 30  1  0  0  0  0
  2  4  1  0  0  0  0
  2 31  1  0  0  0  0
  3  5  2  0  0  0  0
  3 32  1  0  0  0  0
  4  6  2  0  0  0  0
  4 33  1  0  0  0  0
  5  6  1  0  0  0  0
  5  7  1  0  0  0  0
  6 34  1  0  0  0  0
  7  8  1  0  0  0  0
  7 10  2  0  0  0  0
  8  9  1  0  0  0  0
  8 11  1  0  0  0  0
  9 20  1  0  0  0  0
  9 35  1  0  0  0  0
  9 36  1  0  0  0  0
 11 12  1  0  0  0  0
 11 13  1  0  0  0  0
 11 37  1  0  0  0  0
 12 18  1  0  0  0  0
 12 38  1  0  0  0  0
 13 14  1  0  0  0  0
 13 39  1  0  0  0  0
 13 40  1  0  0  0  0
 14 15  1  0  0  0  0
 14 20  1  0  0  0  0
 14 41  1  0  0  0  0
 15 16  1  0  0  0  0
 15 42  1  0  0  0  0
 15 43  1  0  0  0  0
 16 17  1  0  0  0  0
 16 44  1  0  0  0  0
 16 45  1  0  0  0  0
 17 19  2  0  0  0  0
 17 24  1  0  0  0  0
 18 21  2  0  0  0  0
 18 22  1  0  0  0  0
 19 23  1  0  0  0  0
 19 46  1  0  0  0  0
 20 47  1  0  0  0  0
 20 48  1  0  0  0  0
 23 25  1  0  0  0  0
 23 27  2  0  0  0  0
 24 26  2  0  0  0  0
 24 49  1  0  0  0  0
 25 28  2  0  0  0  0
 25 29  1  0  0  0  0
 26 27  1  0  0  0  0
 26 50  1  0  0  0  0
 27 51  1  0  0  0  0
M  CHG  1  14   1
M  CHG  1  22  -1
M  CHG  1  29  -1
M  END
> <rseq>
1

> <mseq>
187

> <S>
-5.74522

> <rmsd_refine>
1.996406

> <E_conf>
-225.2145

> <E_score1>
-11.1811

> <E_refine>
-36.10786

> <E_score2>
-5.74522

>  <$File>
outputs/pdb_4j58_cleaned.pdb_2024_06_17__22_47_40_V2_BS398_MIN1_/SDF/sdf_db.sdf

> <Rec_index>
1

>  <PLIF_raw>
[[21,21,22,29,21,21,22,28,28,29,29],[1206,1212,1212,823,1206,1212,1212,823,829,823,829],[81,81,81,54,81,81,81,54,54,54,54],[2,2,2,2,7,7,7,7,7,7,7],[7.5,0.5,7.5,1.9,4.021717852,2.10437332,3.856864133,3.038979997,3.061314877,4.393966316,0.5895058578]]

> <FP:PLIF>
6 19 1 16 17 18 24 25

>  <PLIF_ligidx>
[29,29,[28,28,29,29],29,[21,21,22],[21,22],[21,21,22],[21,22]]

$$$$
187
  MOE2022           3D

 46 48  0  0  1  0  0  0  0  0999 V2000
    2.8830   16.8690   19.7380 O   0  0  0  0  0  0  0  0  0  0  0  0
    1.8280   17.0500   19.1360 C   0  0  0  0  0  0  0  0  0  0  0  0
    1.7870   17.9140   18.0700 N   0  0  0  0  0  0  0  0  0  0  0  0
    0.5820   16.3800   19.4860 C   0  0  0  0  0  0  0  0  0  0  0  0
   -0.1540   15.7000   18.5070 C   0  0  0  0  0  0  0  0  0  0  0  0
   -1.3680   15.1040   18.8250 C   0  0  0  0  0  0  0  0  0  0  0  0
    0.0880   16.4260   20.7950 C   0  0  0  0  0  0  0  0  0  0  0  0
    2.9590   18.5150   17.4080 C   0  0  1  0  0  0  0  0  0  0  0  0
   -1.1470   15.8650   21.1000 C   0  0  0  0  0  0  0  0  0  0  0  0
   -1.8710   15.1940   20.1190 C   0  0  0  0  0  0  0  0  0  0  0  0
    3.0070   18.0810   15.9390 C   0  0  0  0  0  0  0  0  0  0  0  0
    3.1790   16.7290   15.6080 C   0  0  0  0  0  0  0  0  0  0  0  0
    3.3290   15.7920   16.5840 O   0  0  0  0  0  0  0  0  0  0  0  0
    3.2160   16.2880   14.2900 C   0  0  0  0  0  0  0  0  0  0  0  0
    3.1220   17.2310   13.2680 C   0  0  0  0  0  0  0  0  0  0  0  0
    3.0580   20.0230   17.6250 C   0  0  0  0  0  0  0  0  0  0  0  0
    3.2460   16.8980   11.9320 O   0  0  0  0  0  0  0  0  0  0  0  0
    2.8770   18.9980   14.8890 C   0  0  0  0  0  0  0  0  0  0  0  0
    2.9370   18.5800   13.5630 C   0  0  0  0  0  0  0  0  0  0  0  0
    3.7540   15.7120   11.4210 C   0  0  0  0  0  0  0  0  0  0  0  0
    4.1800   20.4860   17.9340 O   0  0  0  0  0  0  0  0  0  0  0  0
    2.0310   20.7180   17.4480 O   0  5  0  0  0  0  0  0  0  0  0  0
    4.1470   15.6390   10.1340 C   0  0  0  0  0  0  0  0  0  0  0  0
    4.7040   14.4160    9.6650 N   0  0  0  0  0  0  0  0  0  0  0  0
    5.1240   14.2030    8.3740 C   0  0  0  0  0  0  0  0  0  0  0  0
    4.9770   15.2780    7.4070 C   0  0  0  0  0  0  0  0  0  0  0  0
    4.0490   16.8030    9.1550 C   0  0  0  0  0  0  0  0  0  0  0  0
    4.4870   16.4840    7.7430 C   0  0  0  0  0  0  0  0  0  0  0  0
    5.6050   13.1090    8.1070 O   0  0  0  0  0  0  0  0  0  0  0  0
    0.8710   18.1420   17.6550 H   0  0  0  0  0  0  0  0  0  0  0  0
    0.2150   15.6400   17.5150 H   0  0  0  0  0  0  0  0  0  0  0  0
   -1.9160   14.5880   18.0780 H   0  0  0  0  0  0  0  0  0  0  0  0
    0.6420   16.9170   21.5510 H   0  0  0  0  0  0  0  0  0  0  0  0
    3.8510   18.1070   17.8600 H   0  0  0  0  0  0  0  0  0  0  0  0
   -1.5430   15.9550   22.0770 H   0  0  0  0  0  0  0  0  0  0  0  0
   -2.8070   14.7560   20.3550 H   0  0  0  0  0  0  0  0  0  0  0  0
    3.1220   16.1720   17.4620 H   0  0  0  0  0  0  0  0  0  0  0  0
    3.3280   15.2550   14.0880 H   0  0  0  0  0  0  0  0  0  0  0  0
    2.7350   20.0290   15.0860 H   0  0  0  0  0  0  0  0  0  0  0  0
    2.8490   19.2870   12.7790 H   0  0  0  0  0  0  0  0  0  0  0  0
    3.8250   14.9080   12.1040 H   0  0  0  0  0  0  0  0  0  0  0  0
    4.7980   13.6250   10.3210 H   0  0  0  0  0  0  0  0  0  0  0  0
    5.2730   15.0700    6.4110 H   0  0  0  0  0  0  0  0  0  0  0  0
    3.0270   17.1570    9.1350 H   0  0  0  0  0  0  0  0  0  0  0  0
    4.6370   17.6290    9.5310 H   0  0  0  0  0  0  0  0  0  0  0  0
    4.3870   17.2590    7.0270 H   0  0  0  0  0  0  0  0  0  0  0  0
  1  2  2  0  0  0  0
  2  3  1  0  0  0  0
  2  4  1  0  0  0  0
  3  8  1  0  0  0  0
  3 30  1  0  0  0  0
  4  5  2  0  0  0  0
  4  7  1  0  0  0  0
  5  6  1  0  0  0  0
  5 31  1  0  0  0  0
  6 10  2  0  0  0  0
  6 32  1  0  0  0  0
  7  9  2  0  0  0  0
  7 33  1  0  0  0  0
  8 11  1  0  0  0  0
  8 16  1  0  0  0  0
  8 34  1  0  0  0  0
  9 10  1  0  0  0  0
  9 35  1  0  0  0  0
 10 36  1  0  0  0  0
 11 12  1  0  0  0  0
 11 18  2  0  0  0  0
 12 13  1  0  0  0  0
 12 14  2  0  0  0  0
 13 37  1  0  0  0  0
 14 15  1  0  0  0  0
 14 38  1  0  0  0  0
 15 17  1  0  0  0  0
 15 19  2  0  0  0  0
 16 21  2  0  0  0  0
 16 22  1  0  0  0  0
 17 20  1  0  0  0  0
 18 19  1  0  0  0  0
 18 39  1  0  0  0  0
 19 40  1  0  0  0  0
 20 23  2  0  0  0  0
 20 41  1  0  0  0  0
 23 24  1  0  0  0  0
 23 27  1  0  0  0  0
 24 25  1  0  0  0  0
 24 42  1  0  0  0  0
 25 26  1  0  0  0  0
 25 29  2  0  0  0  0
 26 28  2  0  0  0  0
 26 43  1  0  0  0  0
 27 28  1  0  0  0  0
 27 44  1  0  0  0  0
 27 45  1  0  0  0  0
 28 46  1  0  0  0  0
M  CHG  1  22  -1
M  END
> <rseq>
1

> <mseq>
188

> <S>
-5.936123

> <rmsd_refine>
1.922662

> <E_conf>
-30.13807

> <E_score1>
-11.08247

> <E_refine>
-31.99576

> <E_score2>
-5.936123

>  <$File>
outputs/pdb_4j58_cleaned.pdb_2024_06_17__22_47_40_V2_BS398_MIN1_/SDF/sdf_db.sdf

> <Rec_index>
1

>  <PLIF_raw>
[[4,7,9,10,6,5],[1212,1212,1212,1212,1212,1212],[81,81,81,81,81,81],[10,10,10,10,10,10],[0.5,0.5,0.5,0.5,0.5,0.5]]

> <FP:PLIF>
27

>  <PLIF_ligidx>
[[4,7,9,10,6,5]]

$$$$
188
  MOE2022           3D

 52 54  0  0  1  0  0  0  0  0999 V2000
    2.7270   16.6970   20.3290 C   0  0  0  0  0  0  0  0  0  0  0  0
    3.0270   17.3870   19.1560 C   0  0  0  0  0  0  0  0  0  0  0  0
    1.4560   16.1820   20.5320 C   0  0  0  0  0  0  0  0  0  0  0  0
    0.4950   16.3590   19.5440 C   0  0  0  0  0  0  0  0  0  0  0  0
   -0.7450   15.8210   19.7310 O   0  0  0  0  0  0  0  0  0  0  0  0
    2.0630   17.5680   18.1590 C   0  0  0  0  0  0  0  0  0  0  0  0
    0.7820   17.0520   18.3670 C   0  0  0  0  0  0  0  0  0  0  0  0
    2.4030   18.1800   16.7980 C   0  0  1  0  0  0  0  0  0  0  0  0
    2.9020   19.5630   16.6790 N   0  0  0  0  0  0  0  0  0  0  0  0
    3.6820   20.2510   17.7260 C   0  0  0  0  0  0  0  0  0  0  0  0
    2.8050   20.2130   15.4560 C   0  0  0  0  0  0  0  0  0  0  0  0
    2.8750   21.4420   15.3920 O   0  0  0  0  0  0  0  0  0  0  0  0
    3.2910   17.3100   16.1230 O   0  0  0  0  0  0  0  0  0  0  0  0
    3.1060   17.1210   14.7860 C   0  0  0  0  0  0  0  0  0  0  0  0
    3.2000   15.8150   14.3280 C   0  0  0  0  0  0  0  0  0  0  0  0
    2.8490   18.1700   13.8890 C   0  0  0  0  0  0  0  0  0  0  0  0
    3.1200   15.5470   12.9660 C   0  0  0  0  0  0  0  0  0  0  0  0
    5.1850   20.3670   17.3980 C   0  0  0  0  0  0  0  0  0  0  0  0
    2.6430   19.5330   14.2570 N   0  0  0  0  0  0  0  0  0  0  0  0
    2.7910   17.8950   12.5200 C   0  0  0  0  0  0  0  0  0  0  0  0
    2.9450   16.5880   12.0560 C   0  0  0  0  0  0  0  0  0  0  0  0
    6.0620   21.0200   18.4890 C   0  0  0  0  0  0  0  0  0  0  0  0
    7.4710   21.2770   17.9310 C   0  0  0  0  0  0  0  0  0  0  0  0
    5.5120   22.2590   18.8850 O   0  0  0  0  0  0  0  0  0  0  0  0
    6.1860   20.1280   19.7310 C   0  0  0  0  0  0  0  0  0  0  0  0
    2.9580   16.2840   10.5700 C   0  0  0  0  0  0  0  0  0  0  0  0
    4.3170   15.8360   10.0740 C   0  0  0  0  0  0  0  0  0  0  0  0
    4.4270   14.6700    9.6370 O   0  5  0  0  0  0  0  0  0  0  0  0
    5.2570   16.6590   10.1350 O   0  0  0  0  0  0  0  0  0  0  0  0
    3.4750   16.5540   21.0640 H   0  0  0  0  0  0  0  0  0  0  0  0
    4.0030   17.7640   19.0240 H   0  0  0  0  0  0  0  0  0  0  0  0
    1.2250   15.6560   21.4210 H   0  0  0  0  0  0  0  0  0  0  0  0
   -1.3130   15.9960   18.9560 H   0  0  0  0  0  0  0  0  0  0  0  0
    0.0350   17.1610   17.6240 H   0  0  0  0  0  0  0  0  0  0  0  0
    1.4770   18.1520   16.2370 H   0  0  0  0  0  0  0  0  0  0  0  0
    3.2680   21.2370   17.8900 H   0  0  0  0  0  0  0  0  0  0  0  0
    3.5660   19.7570   18.6680 H   0  0  0  0  0  0  0  0  0  0  0  0
    3.3460   15.0300   15.0160 H   0  0  0  0  0  0  0  0  0  0  0  0
    3.2170   14.5490   12.6190 H   0  0  0  0  0  0  0  0  0  0  0  0
    5.5610   19.3670   17.1970 H   0  0  0  0  0  0  0  0  0  0  0  0
    5.2890   20.9470   16.4800 H   0  0  0  0  0  0  0  0  0  0  0  0
    2.4450   20.1610   13.4640 H   0  0  0  0  0  0  0  0  0  0  0  0
    2.6390   18.6850   11.8300 H   0  0  0  0  0  0  0  0  0  0  0  0
    7.4190   21.9420   17.0690 H   0  0  0  0  0  0  0  0  0  0  0  0
    8.0990   21.7400   18.6940 H   0  0  0  0  0  0  0  0  0  0  0  0
    7.9290   20.3350   17.6230 H   0  0  0  0  0  0  0  0  0  0  0  0
    5.3800   22.7940   18.0980 H   0  0  0  0  0  0  0  0  0  0  0  0
    6.8260   20.6080   20.4730 H   0  0  0  0  0  0  0  0  0  0  0  0
    5.2060   19.9550   20.1740 H   0  0  0  0  0  0  0  0  0  0  0  0
    6.6290   19.1730   19.4520 H   0  0  0  0  0  0  0  0  0  0  0  0
    2.2210   15.5230   10.3540 H   0  0  0  0  0  0  0  0  0  0  0  0
    2.6470   17.1520   10.0050 H   0  0  0  0  0  0  0  0  0  0  0  0
  1  2  2  0  0  0  0
  1  3  1  0  0  0  0
  1 30  1  0  0  0  0
  2  6  1  0  0  0  0
  2 31  1  0  0  0  0
  3  4  2  0  0  0  0
  3 32  1  0  0  0  0
  4  5  1  0  0  0  0
  4  7  1  0  0  0  0
  5 33  1  0  0  0  0
  6  7  2  0  0  0  0
  6  8  1  0  0  0  0
  7 34  1  0  0  0  0
  8  9  1  0  0  0  0
  8 13  1  0  0  0  0
  8 35  1  0  0  0  0
  9 10  1  0  0  0  0
  9 11  1  0  0  0  0
 10 18  1  0  0  0  0
 10 36  1  0  0  0  0
 10 37  1  0  0  0  0
 11 12  2  0  0  0  0
 11 19  1  0  0  0  0
 13 14  1  0  0  0  0
 14 15  2  0  0  0  0
 14 16  1  0  0  0  0
 15 17  1  0  0  0  0
 15 38  1  0  0  0  0
 16 19  1  0  0  0  0
 16 20  2  0  0  0  0
 17 21  2  0  0  0  0
 17 39  1  0  0  0  0
 18 22  1  0  0  0  0
 18 40  1  0  0  0  0
 18 41  1  0  0  0  0
 19 42  1  0  0  0  0
 20 21  1  0  0  0  0
 20 43  1  0  0  0  0
 21 26  1  0  0  0  0
 22 23  1  0  0  0  0
 22 24  1  0  0  0  0
 22 25  1  0  0  0  0
 23 44  1  0  0  0  0
 23 45  1  0  0  0  0
 23 46  1  0  0  0  0
 24 47  1  0  0  0  0
 25 48  1  0  0  0  0
 25 49  1  0  0  0  0
 25 50  1  0  0  0  0
 26 27  1  0  0  0  0
 26 51  1  0  0  0  0
 26 52  1  0  0  0  0
 27 28  1  0  0  0  0
 27 29  2  0  0  0  0
M  CHG  1  28  -1
M  END
> <rseq>
1

> <mseq>
189

> <S>
-6.302576

> <rmsd_refine>
0.6476505

> <E_conf>
-229.766

> <E_score1>
-12.54233

> <E_refine>
-37.04428

> <E_score2>
-6.302576

>  <$File>
outputs/pdb_4j58_cleaned.pdb_2024_06_17__22_47_40_V2_BS398_MIN1_/SDF/sdf_db.sdf

> <Rec_index>
1

>  <PLIF_raw>
[[29,29,29],[823,823,829],[54,54,54],[2,7,7],[3.9,5.057308012,1.441976026]]

> <FP:PLIF>
6 19 1 16

>  <PLIF_ligidx>
[29,29,[29,29],29]

$$$$
189
  MOE2022           3D

 55 58  0  0  1  0  0  0  0  0999 V2000
    8.4350   20.8900   18.2040 C   0  0  0  0  0  0  0  0  0  0  0  0
    8.0380   21.4430   16.9940 C   0  0  0  0  0  0  0  0  0  0  0  0
    7.5420   20.1180   18.9350 C   0  0  0  0  0  0  0  0  0  0  0  0
    6.2520   19.9000   18.4620 C   0  0  0  0  0  0  0  0  0  0  0  0
    6.7430   21.2220   16.5260 C   0  0  0  0  0  0  0  0  0  0  0  0
    6.4230   21.8220   15.3420 O   0  0  0  0  0  0  0  0  0  0  0  0
    5.8190   20.4350   17.2430 C   0  0  0  0  0  0  0  0  0  0  0  0
    4.3610   20.1660   16.8190 C   0  0  2  0  0  0  0  0  0  0  0  0
    3.9610   18.7400   16.9450 N   0  0  0  0  0  0  0  0  0  0  0  0
    3.9980   20.5580   15.4540 N   0  0  0  0  0  0  0  0  0  0  0  0
    3.3060   18.3820   15.6660 C   0  0  2  0  0  0  0  0  0  0  0  0
    3.4480   19.6260   14.8360 C   0  0  0  0  0  0  0  0  0  0  0  0
    2.9350   19.7860   13.4100 C   0  0  2  0  0  0  0  0  0  0  0  0
    1.8500   17.8930   15.8180 C   0  0  0  0  0  0  0  0  0  0  0  0
    2.8730   18.5120   12.5570 C   0  0  0  0  0  0  0  0  0  0  0  0
    3.0910   18.5590   18.1250 C   0  0  0  0  0  0  0  0  0  0  0  0
    3.7470   20.7670   12.5440 C   0  0  0  0  0  0  0  0  0  0  0  0
    2.9700   19.0260   11.1190 C   0  0  1  0  0  0  0  0  0  0  0  0
    2.4240   17.2570   18.1560 N   0  0  0  0  0  0  0  0  0  0  0  0
    3.8070   20.1960   11.2140 O   0  0  0  0  0  0  0  0  0  0  0  0
    3.4260   18.0310   10.0640 C   0  0  0  0  0  0  0  0  0  0  0  0
    2.3180   16.5640   19.3490 C   0  0  0  0  0  0  0  0  0  0  0  0
    4.5290   17.2890   10.3120 O   0  0  0  0  0  0  0  0  0  0  0  0
    1.7390   16.8410   16.9260 C   0  0  0  0  0  0  0  0  0  0  0  0
    2.7990   17.8570    9.0190 O   0  0  0  0  0  0  0  0  0  0  0  0
    4.9860   16.2860    9.3590 C   0  0  0  0  0  0  0  0  0  0  0  0
    2.9090   16.9040   20.3740 O   0  0  0  0  0  0  0  0  0  0  0  0
    1.5130   15.4670   19.3650 N   0  0  0  0  0  0  0  0  0  0  0  0
    6.0260   15.3420    9.9560 C   0  0  0  0  0  0  0  0  0  0  0  0
    9.4160   21.0560   18.5700 H   0  0  0  0  0  0  0  0  0  0  0  0
    8.7150   22.0350   16.4340 H   0  0  0  0  0  0  0  0  0  0  0  0
    7.8430   19.6930   19.8560 H   0  0  0  0  0  0  0  0  0  0  0  0
    5.5990   19.3130   19.0500 H   0  0  0  0  0  0  0  0  0  0  0  0
    5.4750   21.6580   15.1510 H   0  0  0  0  0  0  0  0  0  0  0  0
    3.7300   20.7570   17.4700 H   0  0  0  0  0  0  0  0  0  0  0  0
    3.8920   17.5900   15.2200 H   0  0  0  0  0  0  0  0  0  0  0  0
    1.9270   20.1760   13.4660 H   0  0  0  0  0  0  0  0  0  0  0  0
    1.2110   18.7400   16.0740 H   0  0  0  0  0  0  0  0  0  0  0  0
    1.4920   17.4620   14.8850 H   0  0  0  0  0  0  0  0  0  0  0  0
    3.7350   17.8820   12.7750 H   0  0  0  0  0  0  0  0  0  0  0  0
    1.9520   17.9480   12.7040 H   0  0  0  0  0  0  0  0  0  0  0  0
    3.6730   18.7060   19.0210 H   0  0  0  0  0  0  0  0  0  0  0  0
    2.3360   19.3360   18.1340 H   0  0  0  0  0  0  0  0  0  0  0  0
    3.2670   21.7450   12.4950 H   0  0  0  0  0  0  0  0  0  0  0  0
    4.7660   20.8810   12.9090 H   0  0  0  0  0  0  0  0  0  0  0  0
    1.9950   19.3950   10.8260 H   0  0  0  0  0  0  0  0  0  0  0  0
    0.6950   16.6340   17.1230 H   0  0  0  0  0  0  0  0  0  0  0  0
    2.1760   15.9150   16.5780 H   0  0  0  0  0  0  0  0  0  0  0  0
    4.1330   15.6920    9.0290 H   0  0  0  0  0  0  0  0  0  0  0  0
    5.4170   16.7940    8.4950 H   0  0  0  0  0  0  0  0  0  0  0  0
    1.1810   15.0860   18.4670 H   0  0  0  0  0  0  0  0  0  0  0  0
    1.6140   14.8140   20.1530 H   0  0  0  0  0  0  0  0  0  0  0  0
    6.8970   15.9110   10.2680 H   0  0  0  0  0  0  0  0  0  0  0  0
    5.6010   14.8210   10.8140 H   0  0  0  0  0  0  0  0  0  0  0  0
    6.3260   14.6110    9.2050 H   0  0  0  0  0  0  0  0  0  0  0  0
  1  2  1  0  0  0  0
  1  3  2  0  0  0  0
  1 30  1  0  0  0  0
  2  5  2  0  0  0  0
  2 31  1  0  0  0  0
  3  4  1  0  0  0  0
  3 32  1  0  0  0  0
  4  7  2  0  0  0  0
  4 33  1  0  0  0  0
  5  6  1  0  0  0  0
  5  7  1  0  0  0  0
  6 34  1  0  0  0  0
  7  8  1  0  0  0  0
  8  9  1  0  0  0  0
  8 10  1  0  0  0  0
  8 35  1  0  0  0  0
  9 11  1  0  0  0  0
  9 16  1  0  0  0  0
 10 12  2  0  0  0  0
 11 12  1  0  0  0  0
 11 14  1  0  0  0  0
 11 36  1  0  0  0  0
 12 13  1  0  0  0  0
 13 15  1  0  0  0  0
 13 17  1  0  0  0  0
 13 37  1  0  0  0  0
 14 24  1  0  0  0  0
 14 38  1  0  0  0  0
 14 39  1  0  0  0  0
 15 18  1  0  0  0  0
 15 40  1  0  0  0  0
 15 41  1  0  0  0  0
 16 19  1  0  0  0  0
 16 42  1  0  0  0  0
 16 43  1  0  0  0  0
 17 20  1  0  0  0  0
 17 44  1  0  0  0  0
 17 45  1  0  0  0  0
 18 20  1  0  0  0  0
 18 21  1  0  0  0  0
 18 46  1  0  0  0  0
 19 22  1  0  0  0  0
 19 24  1  0  0  0  0
 21 23  1  0  0  0  0
 21 25  2  0  0  0  0
 22 27  2  0  0  0  0
 22 28  1  0  0  0  0
 23 26  1  0  0  0  0
 24 47  1  0  0  0  0
 24 48  1  0  0  0  0
 26 29  1  0  0  0  0
 26 49  1  0  0  0  0
 26 50  1  0  0  0  0
 28 51  1  0  0  0  0
 28 52  1  0  0  0  0
 29 53  1  0  0  0  0
 29 54  1  0  0  0  0
 29 55  1  0  0  0  0
M  END
> <rseq>
1

> <mseq>
190

> <S>
-6.681469

> <rmsd_refine>
1.344153

> <E_conf>
-108.6846

> <E_score1>
-9.381306

> <E_refine>
-39.06421

> <E_score2>
-6.681469

>  <$File>
outputs/pdb_4j58_cleaned.pdb_2024_06_17__22_47_40_V2_BS398_MIN1_/SDF/sdf_db.sdf

> <Rec_index>
1

>  <PLIF_raw>
[[28,9,23],[1071,954,823],[71,62,54],[3,2,2],[2.2,1.5,0.5]]

> <FP:PLIF>
6 20 23 7 14

>  <PLIF_ligidx>
[23,9,9,28,28]

$$$$
190
  MOE2022           3D

 56 58  0  0  0  0  0  0  0  0999 V2000
    6.1880   14.4300   10.0870 C   0  0  0  0  0  0  0  0  0  0  0  0
    5.8500   15.6950    9.6170 C   0  0  0  0  0  0  0  0  0  0  0  0
    4.5890   16.2200    9.8720 C   0  0  0  0  0  0  0  0  0  0  0  0
    3.6450   15.4800   10.5960 C   0  0  0  0  0  0  0  0  0  0  0  0
    3.9910   14.2000   11.0490 C   0  0  0  0  0  0  0  0  0  0  0  0
    5.2570   13.6820   10.7990 C   0  0  0  0  0  0  0  0  0  0  0  0
    2.3100   16.0280   10.8330 C   0  0  0  0  0  0  0  0  0  0  0  0
    1.7680   16.0520   12.1130 N   0  0  0  0  0  0  0  0  0  0  0  0
    1.6380   16.4750    9.9060 O   0  0  0  0  0  0  0  0  0  0  0  0
    2.5990   16.0290   13.3350 C   0  0  0  0  0  0  0  0  0  0  0  0
    0.3680   16.4720   12.3420 C   0  0  0  0  0  0  0  0  0  0  0  0
    1.9160   15.2960   14.5000 C   0  0  0  0  0  0  0  0  0  0  0  0
   -0.2940   15.7390   13.5230 C   0  0  0  0  0  0  0  0  0  0  0  0
    0.5420   15.7720   14.7330 N   0  0  0  0  0  0  0  0  0  0  0  0
    0.0490   16.1850   15.9640 C   0  0  0  0  0  0  0  0  0  0  0  0
   -1.1680   16.1930   16.1330 O   0  0  0  0  0  0  0  0  0  0  0  0
    0.9670   16.6140   17.0190 C   0  0  0  0  0  0  0  0  0  0  0  0
    1.9860   17.5280   16.7390 C   0  0  0  0  0  0  0  0  0  0  0  0
    0.8250   16.1350   18.3270 C   0  0  0  0  0  0  0  0  0  0  0  0
    1.7090   16.5280   19.3270 C   0  0  0  0  0  0  0  0  0  0  0  0
    2.8880   17.9280   17.7280 C   0  0  0  0  0  0  0  0  0  0  0  0
    2.7380   17.4150   19.0250 C   0  0  0  0  0  0  0  0  0  0  0  0
    1.5490   16.0000   20.7360 C   0  0  0  0  0  0  0  0  0  0  0  0
    3.9800   18.8410   17.3820 C   0  0  0  0  0  0  0  0  0  0  0  0
    4.3740   18.9980   16.2280 O   0  0  0  0  0  0  0  0  0  0  0  0
    4.6070   19.5260   18.3910 N   0  0  0  0  0  0  0  0  0  0  0  0
    5.8610   20.2480   18.2150 C   0  0  0  0  0  0  0  0  0  0  0  0
    6.2010   21.1130   19.4260 C   0  0  0  0  0  0  0  0  0  0  0  0
    7.5660   21.7850   19.2720 C   0  0  0  0  0  0  0  0  0  0  0  0
    7.1510   14.0320    9.9010 H   0  0  0  0  0  0  0  0  0  0  0  0
    6.5530   16.2540    9.0580 H   0  0  0  0  0  0  0  0  0  0  0  0
    4.3380   17.1830    9.5090 H   0  0  0  0  0  0  0  0  0  0  0  0
    3.2840   13.6190   11.5840 H   0  0  0  0  0  0  0  0  0  0  0  0
    5.5150   12.7150   11.1460 H   0  0  0  0  0  0  0  0  0  0  0  0
    3.5620   15.5780   13.1630 H   0  0  0  0  0  0  0  0  0  0  0  0
    2.8080   17.0470   13.6340 H   0  0  0  0  0  0  0  0  0  0  0  0
    0.3460   17.5370   12.5300 H   0  0  0  0  0  0  0  0  0  0  0  0
   -0.2360   16.3150   11.4590 H   0  0  0  0  0  0  0  0  0  0  0  0
    1.8790   14.2410   14.2640 H   0  0  0  0  0  0  0  0  0  0  0  0
    2.5300   15.3650   15.3850 H   0  0  0  0  0  0  0  0  0  0  0  0
   -1.2710   16.1690   13.7010 H   0  0  0  0  0  0  0  0  0  0  0  0
   -0.4700   14.7110   13.2390 H   0  0  0  0  0  0  0  0  0  0  0  0
    2.0760   17.9210   15.7590 H   0  0  0  0  0  0  0  0  0  0  0  0
    0.0400   15.4580   18.5510 H   0  0  0  0  0  0  0  0  0  0  0  0
    3.4160   17.6970   19.7880 H   0  0  0  0  0  0  0  0  0  0  0  0
    0.7450   16.5290   21.2490 H   0  0  0  0  0  0  0  0  0  0  0  0
    1.3090   14.9380   20.7170 H   0  0  0  0  0  0  0  0  0  0  0  0
    2.4670   16.1250   21.3120 H   0  0  0  0  0  0  0  0  0  0  0  0
    4.2520   19.4110   19.3520 H   0  0  0  0  0  0  0  0  0  0  0  0
    6.6670   19.5310   18.0630 H   0  0  0  0  0  0  0  0  0  0  0  0
    5.7980   20.8860   17.3310 H   0  0  0  0  0  0  0  0  0  0  0  0
    5.4350   21.8820   19.5310 H   0  0  0  0  0  0  0  0  0  0  0  0
    6.2130   20.4890   20.3200 H   0  0  0  0  0  0  0  0  0  0  0  0
    7.7690   22.3850   20.1570 H   0  0  0  0  0  0  0  0  0  0  0  0
    8.3460   21.0280   19.1690 H   0  0  0  0  0  0  0  0  0  0  0  0
    7.5690   22.4300   18.3930 H   0  0  0  0  0  0  0  0  0  0  0  0
  1  2  1  0  0  0  0
  1  6  2  0  0  0  0
  1 30  1  0  0  0  0
  2  3  2  0  0  0  0
  2 31  1  0  0  0  0
  3  4  1  0  0  0  0
  3 32  1  0  0  0  0
  4  5  2  0  0  0  0
  4  7  1  0  0  0  0
  5  6  1  0  0  0  0
  5 33  1  0  0  0  0
  6 34  1  0  0  0  0
  7  8  1  0  0  0  0
  7  9  2  0  0  0  0
  8 10  1  0  0  0  0
  8 11  1  0  0  0  0
 10 12  1  0  0  0  0
 10 35  1  0  0  0  0
 10 36  1  0  0  0  0
 11 13  1  0  0  0  0
 11 37  1  0  0  0  0
 11 38  1  0  0  0  0
 12 14  1  0  0  0  0
 12 39  1  0  0  0  0
 12 40  1  0  0  0  0
 13 14  1  0  0  0  0
 13 41  1  0  0  0  0
 13 42  1  0  0  0  0
 14 15  1  0  0  0  0
 15 16  2  0  0  0  0
 15 17  1  0  0  0  0
 17 18  1  0  0  0  0
 17 19  2  0  0  0  0
 18 21  2  0  0  0  0
 18 43  1  0  0  0  0
 19 20  1  0  0  0  0
 19 44  1  0  0  0  0
 20 22  2  0  0  0  0
 20 23  1  0  0  0  0
 21 22  1  0  0  0  0
 21 24  1  0  0  0  0
 22 45  1  0  0  0  0
 23 46  1  0  0  0  0
 23 47  1  0  0  0  0
 23 48  1  0  0  0  0
 24 25  2  0  0  0  0
 24 26  1  0  0  0  0
 26 27  1  0  0  0  0
 26 49  1  0  0  0  0
 27 28  1  0  0  0  0
 27 50  1  0  0  0  0
 27 51  1  0  0  0  0
 28 29  1  0  0  0  0
 28 52  1  0  0  0  0
 28 53  1  0  0  0  0
 29 54  1  0  0  0  0
 29 55  1  0  0  0  0
 29 56  1  0  0  0  0
M  END
> <rseq>
1

> <mseq>
191

> <S>
-6.840906

> <rmsd_refine>
1.027129

> <E_conf>
34.99874

> <E_score1>
-10.44655

> <E_refine>
-34.97597

> <E_score2>
-6.840906

>  <$File>
outputs/pdb_4j58_cleaned.pdb_2024_06_17__22_47_40_V2_BS398_MIN1_/SDF/sdf_db.sdf

> <Rec_index>
1

>  <PLIF_raw>
[[26,1,6,5,4,3,2],[1504,820,820,820,820,820,820],[101,54,54,54,54,54,54],[3,10,10,10,10,10,10],[0.8,0.6,0.6,0.6,0.6,0.6,0.6]]

> <FP:PLIF>
2 8

>  <PLIF_ligidx>
[[1,6,5,4,3,2],26]

$$$$
191
  MOE2022           3D

 45 48  0  0  0  0  0  0  0  0999 V2000
    7.1470   20.8600   19.0020 C   0  0  0  0  0  0  0  0  0  0  0  0
    6.2030   19.8720   18.7430 C   0  0  0  0  0  0  0  0  0  0  0  0
    5.0200   20.1620   18.0480 C   0  0  0  0  0  0  0  0  0  0  0  0
    4.0400   19.1050   17.7670 C   0  0  0  0  0  0  0  0  0  0  0  0
    3.5110   18.9150   16.4840 C   0  0  0  0  0  0  0  0  0  0  0  0
    3.5910   18.2780   18.8000 C   0  0  0  0  0  0  0  0  0  0  0  0
    2.5860   17.3230   18.6060 C   0  0  0  0  0  0  0  0  0  0  0  0
    2.5170   17.9640   16.2590 C   0  0  0  0  0  0  0  0  0  0  0  0
    2.0690   16.5430   19.7290 C   0  0  0  0  0  0  0  0  0  0  0  0
    2.0660   17.1720   17.3120 C   0  0  0  0  0  0  0  0  0  0  0  0
    1.8890   17.8280   14.8860 C   0  0  0  0  0  0  0  0  0  0  0  0
    0.8800   15.9840   19.7500 N   0  0  0  0  0  0  0  0  0  0  0  0
    2.7270   16.3460   20.8500 N   0  0  0  0  0  0  0  0  0  0  0  0
    1.9150   15.6370   21.6060 N   0  5  0  0  0  0  0  0  0  0  0  0
    2.7200   17.1180   13.9100 N   0  0  0  0  0  0  0  0  0  0  0  0
    4.8100   21.4990   17.6620 C   0  0  0  0  0  0  0  0  0  0  0  0
    2.8940   17.5370   12.6090 C   0  0  0  0  0  0  0  0  0  0  0  0
    0.7900   15.4210   20.9350 N   0  0  0  0  0  0  0  0  0  0  0  0
    3.5510   16.6420   11.6540 C   0  0  0  0  0  0  0  0  0  0  0  0
    3.6500   21.8690   17.0470 O   0  0  0  0  0  0  0  0  0  0  0  0
    2.5160   18.6650   12.3010 O   0  0  0  0  0  0  0  0  0  0  0  0
    4.1720   17.1800   10.5120 C   0  0  0  0  0  0  0  0  0  0  0  0
    6.9270   22.1690   18.5820 C   0  0  0  0  0  0  0  0  0  0  0  0
    5.7540   22.4920   17.9120 C   0  0  0  0  0  0  0  0  0  0  0  0
    3.6020   15.2510   11.8580 C   0  0  0  0  0  0  0  0  0  0  0  0
    4.2980   14.4320   10.9780 C   0  0  0  0  0  0  0  0  0  0  0  0
    4.9360   14.9970    9.8760 C   0  0  0  0  0  0  0  0  0  0  0  0
    5.6380   14.1990    9.0280 O   0  0  0  0  0  0  0  0  0  0  0  0
    4.8670   16.3650    9.6280 C   0  0  0  0  0  0  0  0  0  0  0  0
    8.0390   20.6160   19.5200 H   0  0  0  0  0  0  0  0  0  0  0  0
    6.3870   18.8880   19.0790 H   0  0  0  0  0  0  0  0  0  0  0  0
    3.8550   19.5120   15.6790 H   0  0  0  0  0  0  0  0  0  0  0  0
    4.0040   18.3990   19.7660 H   0  0  0  0  0  0  0  0  0  0  0  0
    1.3070   16.4530   17.1380 H   0  0  0  0  0  0  0  0  0  0  0  0
    0.9400   17.3160   14.9710 H   0  0  0  0  0  0  0  0  0  0  0  0
    1.6320   18.8160   14.5300 H   0  0  0  0  0  0  0  0  0  0  0  0
    3.0260   16.1680   14.1680 H   0  0  0  0  0  0  0  0  0  0  0  0
    3.0320   21.1120   17.0120 H   0  0  0  0  0  0  0  0  0  0  0  0
    4.1220   18.2230   10.3260 H   0  0  0  0  0  0  0  0  0  0  0  0
    7.6530   22.9160   18.7760 H   0  0  0  0  0  0  0  0  0  0  0  0
    5.5760   23.4890   17.5970 H   0  0  0  0  0  0  0  0  0  0  0  0
    3.1170   14.8150   12.6930 H   0  0  0  0  0  0  0  0  0  0  0  0
    4.3460   13.3860   11.1420 H   0  0  0  0  0  0  0  0  0  0  0  0
    6.0000   14.7200    8.2860 H   0  0  0  0  0  0  0  0  0  0  0  0
    5.3400   16.7800    8.7760 H   0  0  0  0  0  0  0  0  0  0  0  0
  1  2  1  0  0  0  0
  1 23  2  0  0  0  0
  1 30  1  0  0  0  0
  2  3  2  0  0  0  0
  2 31  1  0  0  0  0
  3  4  1  0  0  0  0
  3 16  1  0  0  0  0
  4  5  1  0  0  0  0
  4  6  2  0  0  0  0
  5  8  2  0  0  0  0
  5 32  1  0  0  0  0
  6  7  1  0  0  0  0
  6 33  1  0  0  0  0
  7  9  1  0  0  0  0
  7 10  2  0  0  0  0
  8 10  1  0  0  0  0
  8 11  1  0  0  0  0
  9 12  1  0  0  0  0
  9 13  2  0  0  0  0
 10 34  1  0  0  0  0
 11 15  1  0  0  0  0
 11 35  1  0  0  0  0
 11 36  1  0  0  0  0
 12 18  2  0  0  0  0
 13 14  1  0  0  0  0
 14 18  1  0  0  0  0
 15 17  1  0  0  0  0
 15 37  1  0  0  0  0
 16 20  1  0  0  0  0
 16 24  2  0  0  0  0
 17 19  1  0  0  0  0
 17 21  2  0  0  0  0
 19 22  1  0  0  0  0
 19 25  2  0  0  0  0
 20 38  1  0  0  0  0
 22 29  2  0  0  0  0
 22 39  1  0  0  0  0
 23 24  1  0  0  0  0
 23 40  1  0  0  0  0
 24 41  1  0  0  0  0
 25 26  1  0  0  0  0
 25 42  1  0  0  0  0
 26 27  2  0  0  0  0
 26 43  1  0  0  0  0
 27 28  1  0  0  0  0
 27 29  1  0  0  0  0
 28 44  1  0  0  0  0
 29 45  1  0  0  0  0
M  CHG  1  14  -1
M  END
> <rseq>
1

> <mseq>
192

> <S>
-6.322786

> <rmsd_refine>
0.842022

> <E_conf>
-71.90424

> <E_score1>
-11.07942

> <E_refine>
-37.30824

> <E_score2>
-6.322786

>  <$File>
outputs/pdb_4j58_cleaned.pdb_2024_06_17__22_47_40_V2_BS398_MIN1_/SDF/sdf_db.sdf

> <Rec_index>
1

>  <PLIF_raw>
[[18,18,14,14,18,18,4,6,7,10,8,5],[1206,1212,1206,1212,1206,1212,954,954,954,954,954,954],[81,81,81,81,81,81,62,62,62,62,62,62],[2,2,7,7,7,7,10,10,10,10,10,10],[3.6,0.9,1.875140506,1.458374315,3.036353199,3.900515945,0.9,0.9,0.9,0.9,0.9,0.9]]

> <FP:PLIF>
21 17 18 24 25

>  <PLIF_ligidx>
[[4,6,7,10,8,5],[18,18],18,[14,14,18,18],18]

$$$$
204
  MOE2022           3D

 52 54  0  0  1  0  0  0  0  0999 V2000
    7.3400   20.7430   18.6900 C   0  0  0  0  0  0  0  0  0  0  0  0
    8.1830   21.7860   18.3320 C   0  0  0  0  0  0  0  0  0  0  0  0
    6.0150   20.7010   18.2320 C   0  0  0  0  0  0  0  0  0  0  0  0
    5.1800   19.5780   18.6240 C   0  0  0  0  0  0  0  0  0  0  0  0
    3.9590   19.2630   18.1190 C   0  0  0  0  0  0  0  0  0  0  0  0
    7.7140   22.8070   17.5130 C   0  0  0  0  0  0  0  0  0  0  0  0
    3.2200   18.0870   18.5630 C   0  0  0  0  0  0  0  0  0  0  0  0
    2.1270   17.6030   17.8390 N   0  0  0  0  0  0  0  0  0  0  0  0
    3.5640   17.4840   19.5770 O   0  0  0  0  0  0  0  0  0  0  0  0
    5.5540   21.7420   17.4110 C   0  0  0  0  0  0  0  0  0  0  0  0
    6.4000   22.7850   17.0560 C   0  0  0  0  0  0  0  0  0  0  0  0
    1.9240   18.0040   16.4170 C   0  0  0  0  0  0  0  0  0  0  0  0
    1.3090   16.4330   18.3100 C   0  0  2  0  0  0  0  0  0  0  0  0
    0.0340   16.2520   17.4570 C   0  0  0  0  0  0  0  0  0  0  0  0
    0.9200   16.4470   19.8050 C   0  0  0  0  0  0  0  0  0  0  0  0
    1.5600   16.8340   15.4830 C   0  0  2  0  0  0  0  0  0  0  0  0
    1.3980   17.2940   14.0970 N   0  0  0  0  0  0  0  0  0  0  0  0
    0.2920   16.1020   15.9510 C   0  0  0  0  0  0  0  0  0  0  0  0
    2.2820   16.9110   13.0660 C   0  0  0  0  0  0  0  0  0  0  0  0
    2.7260   17.9150   12.2030 C   0  0  0  0  0  0  0  0  0  0  0  0
    3.6000   17.5940   11.1690 C   0  0  0  0  0  0  0  0  0  0  0  0
    2.7020   15.5830   12.8420 C   0  0  0  0  0  0  0  0  0  0  0  0
    4.0190   18.6030   10.3480 O   0  0  0  0  0  0  0  0  0  0  0  0
    4.0720   16.2840   10.9640 C   0  0  0  0  0  0  0  0  0  0  0  0
    2.2150   14.5510   13.6080 O   0  0  0  0  0  0  0  0  0  0  0  0
    5.0680   15.9800    9.9410 C   0  0  0  0  0  0  0  0  0  0  0  0
    4.9620   16.4740    8.7870 O   0  5  0  0  0  0  0  0  0  0  0  0
    3.5890   15.2770   11.8160 C   0  0  0  0  0  0  0  0  0  0  0  0
    6.0630   15.2700   10.2470 O   0  0  0  0  0  0  0  0  0  0  0  0
    7.7090   19.9680   19.3120 H   0  0  0  0  0  0  0  0  0  0  0  0
    9.1840   21.8030   18.6810 H   0  0  0  0  0  0  0  0  0  0  0  0
    5.6050   18.9520   19.3600 H   0  0  0  0  0  0  0  0  0  0  0  0
    3.5090   19.8710   17.3800 H   0  0  0  0  0  0  0  0  0  0  0  0
    8.3550   23.6000   17.2390 H   0  0  0  0  0  0  0  0  0  0  0  0
    4.5570   21.7450   17.0570 H   0  0  0  0  0  0  0  0  0  0  0  0
    6.0450   23.5670   16.4350 H   0  0  0  0  0  0  0  0  0  0  0  0
    1.1510   18.7590   16.3680 H   0  0  0  0  0  0  0  0  0  0  0  0
    2.8130   18.4620   16.0080 H   0  0  0  0  0  0  0  0  0  0  0  0
    1.9230   15.5590   18.1700 H   0  0  0  0  0  0  0  0  0  0  0  0
   -0.5190   15.3750   17.7980 H   0  0  0  0  0  0  0  0  0  0  0  0
   -0.5980   17.1280   17.6130 H   0  0  0  0  0  0  0  0  0  0  0  0
    1.7500   16.1430   20.4400 H   0  0  0  0  0  0  0  0  0  0  0  0
    0.6010   17.4400   20.1040 H   0  0  0  0  0  0  0  0  0  0  0  0
    0.1090   15.7480   20.0060 H   0  0  0  0  0  0  0  0  0  0  0  0
    2.4030   16.1440   15.5380 H   0  0  0  0  0  0  0  0  0  0  0  0
    1.1630   18.2970   14.0650 H   0  0  0  0  0  0  0  0  0  0  0  0
    0.3860   15.0460   15.7010 H   0  0  0  0  0  0  0  0  0  0  0  0
   -0.5790   16.4920   15.4210 H   0  0  0  0  0  0  0  0  0  0  0  0
    2.4010   18.9140   12.3340 H   0  0  0  0  0  0  0  0  0  0  0  0
    4.5120   18.2140    9.5910 H   0  0  0  0  0  0  0  0  0  0  0  0
    1.5190   14.9050   14.1960 H   0  0  0  0  0  0  0  0  0  0  0  0
    3.9050   14.2740   11.6760 H   0  0  0  0  0  0  0  0  0  0  0  0
  1  2  1  0  0  0  0
  1  3  2  0  0  0  0
  1 30  1  0  0  0  0
  2  6  2  0  0  0  0
  2 31  1  0  0  0  0
  3  4  1  0  0  0  0
  3 10  1  0  0  0  0
  4  5  2  0  0  0  0
  4 32  1  0  0  0  0
  5  7  1  0  0  0  0
  5 33  1  0  0  0  0
  6 11  1  0  0  0  0
  6 34  1  0  0  0  0
  7  8  1  0  0  0  0
  7  9  2  0  0  0  0
  8 12  1  0  0  0  0
  8 13  1  0  0  0  0
 10 11  2  0  0  0  0
 10 35  1  0  0  0  0
 11 36  1  0  0  0  0
 12 16  1  0  0  0  0
 12 37  1  0  0  0  0
 12 38  1  0  0  0  0
 13 14  1  0  0  0  0
 13 15  1  0  0  0  0
 13 39  1  0  0  0  0
 14 18  1  0  0  0  0
 14 40  1  0  0  0  0
 14 41  1  0  0  0  0
 15 42  1  0  0  0  0
 15 43  1  0  0  0  0
 15 44  1  0  0  0  0
 16 17  1  0  0  0  0
 16 18  1  0  0  0  0
 16 45  1  0  0  0  0
 17 19  1  0  0  0  0
 17 46  1  0  0  0  0
 18 47  1  0  0  0  0
 18 48  1  0  0  0  0
 19 20  2  0  0  0  0
 19 22  1  0  0  0  0
 20 21  1  0  0  0  0
 20 49  1  0  0  0  0
 21 23  1  0  0  0  0
 21 24  2  0  0  0  0
 22 25  1  0  0  0  0
 22 28  2  0  0  0  0
 23 50  1  0  0  0  0
 24 26  1  0  0  0  0
 24 28  1  0  0  0  0
 25 51  1  0  0  0  0
 26 27  1  0  0  0  0
 26 29  2  0  0  0  0
 28 52  1  0  0  0  0
M  CHG  1  27  -1
M  END
> <rseq>
1

> <mseq>
205

> <S>
-6.222881

> <rmsd_refine>
0.9984494

> <E_conf>
-109.1928

> <E_score1>
-11.01803

> <E_refine>
-32.74805

> <E_score2>
-6.222881

>  <$File>
outputs/pdb_4j58_cleaned.pdb_2024_06_17__22_47_40_V2_BS398_MIN1_/SDF/sdf_db.sdf

> <Rec_index>
1

>  <PLIF_raw>
[[29,29],[823,823],[54,54],[2,7],[1.2,3.402445175]]

> <FP:PLIF>
6 1

>  <PLIF_ligidx>
[29,29]

$$$$
205
  MOE2022           3D

 55 57  0  0  1  0  0  0  0  0999 V2000
    6.4750   20.0850   19.1590 C   0  0  0  0  0  0  0  0  0  0  0  0
    7.4950   20.9140   18.7620 C   0  0  0  0  0  0  0  0  0  0  0  0
    5.3760   19.8440   18.3060 C   0  0  0  0  0  0  0  0  0  0  0  0
    4.3490   18.9430   18.6660 C   0  0  0  0  0  0  0  0  0  0  0  0
    3.3340   18.6570   17.7830 C   0  0  0  0  0  0  0  0  0  0  0  0
    7.4520   21.5520   17.5090 C   0  0  0  0  0  0  0  0  0  0  0  0
    8.5990   22.4600   17.1270 C   0  0  0  0  0  0  0  0  0  0  0  0
    6.3670   21.3650   16.6550 C   0  0  0  0  0  0  0  0  0  0  0  0
    3.3010   19.4110   16.5640 C   0  0  0  0  0  0  0  0  0  0  0  0
    6.2910   22.0650   15.3750 C   0  0  0  0  0  0  0  0  0  0  0  0
    2.3610   17.6020   18.0990 C   0  0  0  0  0  0  0  0  0  0  0  0
    7.0890   21.7510   14.4460 O   0  0  0  0  0  0  0  0  0  0  0  0
    5.4440   22.9820   15.2160 O   0  5  0  0  0  0  0  0  0  0  0  0
    2.1490   17.2920   19.3040 O   0  5  0  0  0  0  0  0  0  0  0  0
    1.7780   16.9670   17.1740 O   0  0  0  0  0  0  0  0  0  0  0  0
    2.2120   19.2780   15.7250 N   0  0  0  0  0  0  0  0  0  0  0  0
    5.3140   20.4830   17.0450 C   0  0  0  0  0  0  0  0  0  0  0  0
    1.9650   20.0120   14.4850 C   0  0  0  0  0  0  0  0  0  0  0  0
    4.2530   20.2490   16.2110 N   0  0  0  0  0  0  0  0  0  0  0  0
    1.8190   19.0800   13.2760 C   0  0  1  0  0  0  0  0  0  0  0  0
    3.1320   18.3310   12.9860 C   0  0  0  0  0  0  0  0  0  0  0  0
    0.7700   17.9710   13.4890 C   0  0  0  0  0  0  0  0  0  0  0  0
    1.5780   16.6860   13.6610 C   0  0  0  0  0  0  0  0  0  0  0  0
    2.8540   16.8590   12.9130 N   0  3  1  0  0  0  0  0  0  0  0  0
    2.7510   16.3490   11.5060 C   0  0  0  0  0  0  0  0  0  0  0  0
    4.0310   16.3750   10.7010 C   0  0  0  0  0  0  0  0  0  0  0  0
    4.7860   15.2960   10.4330 C   0  0  0  0  0  0  0  0  0  0  0  0
    4.4670   13.8960   10.9200 C   0  0  0  0  0  0  0  0  0  0  0  0
    6.0360   15.3950    9.5880 C   0  0  0  0  0  0  0  0  0  0  0  0
    6.5160   19.6150   20.1050 H   0  0  0  0  0  0  0  0  0  0  0  0
    8.3220   21.0750   19.4050 H   0  0  0  0  0  0  0  0  0  0  0  0
    4.3840   18.4660   19.6080 H   0  0  0  0  0  0  0  0  0  0  0  0
    9.0700   22.1170   16.2060 H   0  0  0  0  0  0  0  0  0  0  0  0
    8.2320   23.4740   16.9770 H   0  0  0  0  0  0  0  0  0  0  0  0
    9.3630   22.4810   17.9030 H   0  0  0  0  0  0  0  0  0  0  0  0
    1.4860   18.6080   16.0310 H   0  0  0  0  0  0  0  0  0  0  0  0
    1.0400   20.5780   14.5990 H   0  0  0  0  0  0  0  0  0  0  0  0
    2.7620   20.7280   14.2820 H   0  0  0  0  0  0  0  0  0  0  0  0
    1.5630   19.6690   12.3950 H   0  0  0  0  0  0  0  0  0  0  0  0
    3.5940   18.7230   12.0900 H   0  0  0  0  0  0  0  0  0  0  0  0
    3.8370   18.5580   13.7760 H   0  0  0  0  0  0  0  0  0  0  0  0
    0.1280   18.1540   14.3520 H   0  0  0  0  0  0  0  0  0  0  0  0
    0.1580   17.8800   12.5920 H   0  0  0  0  0  0  0  0  0  0  0  0
    1.7650   16.5440   14.7180 H   0  0  0  0  0  0  0  0  0  0  0  0
    1.0020   15.8220   13.3560 H   0  0  0  0  0  0  0  0  0  0  0  0
    3.5880   16.3550   13.3900 H   0  0  0  0  0  0  0  0  0  0  0  0
    2.3650   15.3380   11.4970 H   0  0  0  0  0  0  0  0  0  0  0  0
    2.0010   16.8990   10.9540 H   0  0  0  0  0  0  0  0  0  0  0  0
    4.3030   17.3330   10.3380 H   0  0  0  0  0  0  0  0  0  0  0  0
    5.3600   13.3960   11.2690 H   0  0  0  0  0  0  0  0  0  0  0  0
    3.7640   13.8800   11.7390 H   0  0  0  0  0  0  0  0  0  0  0  0
    4.0540   13.2930   10.1240 H   0  0  0  0  0  0  0  0  0  0  0  0
    6.1390   16.3650    9.1230 H   0  0  0  0  0  0  0  0  0  0  0  0
    6.9190   15.2150   10.1820 H   0  0  0  0  0  0  0  0  0  0  0  0
    6.0280   14.6660    8.7900 H   0  0  0  0  0  0  0  0  0  0  0  0
  1  2  1  0  0  0  0
  1  3  2  0  0  0  0
  1 30  1  0  0  0  0
  2  6  2  0  0  0  0
  2 31  1  0  0  0  0
  3  4  1  0  0  0  0
  3 17  1  0  0  0  0
  4  5  2  0  0  0  0
  4 32  1  0  0  0  0
  5  9  1  0  0  0  0
  5 11  1  0  0  0  0
  6  7  1  0  0  0  0
  6  8  1  0  0  0  0
  7 33  1  0  0  0  0
  7 34  1  0  0  0  0
  7 35  1  0  0  0  0
  8 10  1  0  0  0  0
  8 17  2  0  0  0  0
  9 16  1  0  0  0  0
  9 19  2  0  0  0  0
 10 12  2  0  0  0  0
 10 13  1  0  0  0  0
 11 14  1  0  0  0  0
 11 15  2  0  0  0  0
 16 18  1  0  0  0  0
 16 36  1  0  0  0  0
 17 19  1  0  0  0  0
 18 20  1  0  0  0  0
 18 37  1  0  0  0  0
 18 38  1  0  0  0  0
 20 21  1  0  0  0  0
 20 22  1  0  0  0  0
 20 39  1  0  0  0  0
 21 24  1  0  0  0  0
 21 40  1  0  0  0  0
 21 41  1  0  0  0  0
 22 23  1  0  0  0  0
 22 42  1  0  0  0  0
 22 43  1  0  0  0  0
 23 24  1  0  0  0  0
 23 44  1  0  0  0  0
 23 45  1  0  0  0  0
 24 25  1  0  0  0  0
 24 46  1  0  0  0  0
 25 26  1  0  0  0  0
 25 47  1  0  0  0  0
 25 48  1  0  0  0  0
 26 27  2  0  0  0  0
 26 49  1  0  0  0  0
 27 28  1  0  0  0  0
 27 29  1  0  0  0  0
 28 50  1  0  0  0  0
 28 51  1  0  0  0  0
 28 52  1  0  0  0  0
 29 53  1  0  0  0  0
 29 54  1  0  0  0  0
 29 55  1  0  0  0  0
M  CHG  1  13  -1
M  CHG  1  14  -1
M  CHG  1  24   1
M  END
> <rseq>
1

> <mseq>
206

> <S>
-6.156603

> <rmsd_refine>
0.9500952

> <E_conf>
-226.1835

> <E_score1>
-10.07463

> <E_refine>
-36.57909

> <E_score2>
-6.156603

>  <$File>
outputs/pdb_4j58_cleaned.pdb_2024_06_17__22_47_40_V2_BS398_MIN1_/SDF/sdf_db.sdf

> <Rec_index>
1

>  <PLIF_raw>
[[12,12,12,12,2,2,2,2,2,2],[826,829,826,829,1651,1655,1659,1657,1653,1650],[54,54,54,54,112,112,112,112,112,112],[2,2,7,7,10,10,10,10,10,10],[5.8,0.6,5.409648333,2.276420977,0.5,0.5,0.5,0.5,0.5,0.5]]

> <FP:PLIF>
6 19 1 16 15

>  <PLIF_ligidx>
[[12,12],12,[12,12],12,[2,2,2,2,2,2]]

$$$$
206
  MOE2022           3D

 56 58  0  0  0  0  0  0  0  0999 V2000
    6.3340   14.2770   10.0670 C   0  0  0  0  0  0  0  0  0  0  0  0
    5.9790   15.5420    9.6060 C   0  0  0  0  0  0  0  0  0  0  0  0
    4.6740   15.9950    9.7490 C   0  0  0  0  0  0  0  0  0  0  0  0
    3.7080   15.1850   10.3570 C   0  0  0  0  0  0  0  0  0  0  0  0
    4.0700   13.9030   10.7930 C   0  0  0  0  0  0  0  0  0  0  0  0
    5.3780   13.4560   10.6540 C   0  0  0  0  0  0  0  0  0  0  0  0
    2.3450   15.6750   10.5310 C   0  0  0  0  0  0  0  0  0  0  0  0
    1.8090   15.7740   11.8060 N   0  0  0  0  0  0  0  0  0  0  0  0
    1.6590   16.0120    9.5700 O   0  0  0  0  0  0  0  0  0  0  0  0
    2.6250   15.7380   13.0340 C   0  0  0  0  0  0  0  0  0  0  0  0
    0.4060   16.1660   12.0360 C   0  0  0  0  0  0  0  0  0  0  0  0
    1.9370   14.9790   14.1830 C   0  0  0  0  0  0  0  0  0  0  0  0
   -0.2360   15.3720   13.1860 C   0  0  0  0  0  0  0  0  0  0  0  0
    0.5560   15.4310   14.4360 N   0  0  0  0  0  0  0  0  0  0  0  0
    0.3090   16.5470   15.2810 C   0  0  0  0  0  0  0  0  0  0  0  0
    1.3420   17.3900   15.7240 C   0  0  0  0  0  0  0  0  0  0  0  0
   -1.0090   16.8090   15.6790 C   0  0  0  0  0  0  0  0  0  0  0  0
    1.0520   18.5010   16.5100 C   0  0  0  0  0  0  0  0  0  0  0  0
    2.1610   19.4390   16.9470 C   0  0  0  0  0  0  0  0  0  0  0  0
    3.1400   18.8780   17.8910 N   0  0  0  0  0  0  0  0  0  0  0  0
   -1.2900   17.9150   16.4700 C   0  0  0  0  0  0  0  0  0  0  0  0
   -0.2670   18.7640   16.8770 C   0  0  0  0  0  0  0  0  0  0  0  0
    2.7640   17.7030   18.5690 O   0  0  0  0  0  0  0  0  0  0  0  0
    4.3070   19.5090   18.2590 C   0  0  0  0  0  0  0  0  0  0  0  0
    4.9770   19.0570   19.1770 O   0  0  0  0  0  0  0  0  0  0  0  0
    4.7370   20.7640   17.5150 C   0  0  0  0  0  0  0  0  0  0  0  0
    6.1530   21.2540   17.8490 C   0  0  0  0  0  0  0  0  0  0  0  0
    6.2390   21.7420   19.1780 O   0  0  0  0  0  0  0  0  0  0  0  0
    7.5780   22.0270   19.5380 C   0  0  0  0  0  0  0  0  0  0  0  0
    7.3300   13.9360    9.9730 H   0  0  0  0  0  0  0  0  0  0  0  0
    6.7010   16.1590    9.1420 H   0  0  0  0  0  0  0  0  0  0  0  0
    4.4090   16.9590    9.3980 H   0  0  0  0  0  0  0  0  0  0  0  0
    3.3440   13.2720   11.2390 H   0  0  0  0  0  0  0  0  0  0  0  0
    5.6490   12.4910   10.9970 H   0  0  0  0  0  0  0  0  0  0  0  0
    3.5950   15.2970   12.8710 H   0  0  0  0  0  0  0  0  0  0  0  0
    2.8270   16.7540   13.3430 H   0  0  0  0  0  0  0  0  0  0  0  0
    0.3620   17.2220   12.2620 H   0  0  0  0  0  0  0  0  0  0  0  0
   -0.1920   16.0280   11.1450 H   0  0  0  0  0  0  0  0  0  0  0  0
    1.9150   13.9270   13.9330 H   0  0  0  0  0  0  0  0  0  0  0  0
    2.5320   15.0420   15.0830 H   0  0  0  0  0  0  0  0  0  0  0  0
   -1.2500   15.7110   13.3360 H   0  0  0  0  0  0  0  0  0  0  0  0
   -0.3230   14.3410   12.8740 H   0  0  0  0  0  0  0  0  0  0  0  0
    2.3470   17.2010   15.4580 H   0  0  0  0  0  0  0  0  0  0  0  0
   -1.7950   16.1630   15.3850 H   0  0  0  0  0  0  0  0  0  0  0  0
    2.6700   19.7910   16.0610 H   0  0  0  0  0  0  0  0  0  0  0  0
    1.7310   20.3290   17.3880 H   0  0  0  0  0  0  0  0  0  0  0  0
   -2.2880   18.1150   16.7640 H   0  0  0  0  0  0  0  0  0  0  0  0
   -0.4970   19.6140   17.4640 H   0  0  0  0  0  0  0  0  0  0  0  0
    1.8910   17.4370   18.2140 H   0  0  0  0  0  0  0  0  0  0  0  0
    4.6940   20.5770   16.4520 H   0  0  0  0  0  0  0  0  0  0  0  0
    4.0240   21.5560   17.6980 H   0  0  0  0  0  0  0  0  0  0  0  0
    6.8550   20.4290   17.7130 H   0  0  0  0  0  0  0  0  0  0  0  0
    6.4290   22.0560   17.1630 H   0  0  0  0  0  0  0  0  0  0  0  0
    8.1740   21.1130   19.5180 H   0  0  0  0  0  0  0  0  0  0  0  0
    8.0040   22.7540   18.8460 H   0  0  0  0  0  0  0  0  0  0  0  0
    7.5990   22.4390   20.5460 H   0  0  0  0  0  0  0  0  0  0  0  0
  1  2  1  0  0  0  0
  1  6  2  0  0  0  0
  1 30  1  0  0  0  0
  2  3  2  0  0  0  0
  2 31  1  0  0  0  0
  3  4  1  0  0  0  0
  3 32  1  0  0  0  0
  4  5  2  0  0  0  0
  4  7  1  0  0  0  0
  5  6  1  0  0  0  0
  5 33  1  0  0  0  0
  6 34  1  0  0  0  0
  7  8  1  0  0  0  0
  7  9  2  0  0  0  0
  8 10  1  0  0  0  0
  8 11  1  0  0  0  0
 10 12  1  0  0  0  0
 10 35  1  0  0  0  0
 10 36  1  0  0  0  0
 11 13  1  0  0  0  0
 11 37  1  0  0  0  0
 11 38  1  0  0  0  0
 12 14  1  0  0  0  0
 12 39  1  0  0  0  0
 12 40  1  0  0  0  0
 13 14  1  0  0  0  0
 13 41  1  0  0  0  0
 13 42  1  0  0  0  0
 14 15  1  0  0  0  0
 15 16  2  0  0  0  0
 15 17  1  0  0  0  0
 16 18  1  0  0  0  0
 16 43  1  0  0  0  0
 17 21  2  0  0  0  0
 17 44  1  0  0  0  0
 18 19  1  0  0  0  0
 18 22  2  0  0  0  0
 19 20  1  0  0  0  0
 19 45  1  0  0  0  0
 19 46  1  0  0  0  0
 20 23  1  0  0  0  0
 20 24  1  0  0  0  0
 21 22  1  0  0  0  0
 21 47  1  0  0  0  0
 22 48  1  0  0  0  0
 23 49  1  0  0  0  0
 24 25  2  0  0  0  0
 24 26  1  0  0  0  0
 26 27  1  0  0  0  0
 26 50  1  0  0  0  0
 26 51  1  0  0  0  0
 27 28  1  0  0  0  0
 27 52  1  0  0  0  0
 27 53  1  0  0  0  0
 28 29  1  0  0  0  0
 29 54  1  0  0  0  0
 29 55  1  0  0  0  0
 29 56  1  0  0  0  0
M  END
> <rseq>
1

> <mseq>
207

> <S>
-6.047052

> <rmsd_refine>
1.129274

> <E_conf>
59.9973

> <E_score1>
-9.184526

> <E_refine>
-32.40062

> <E_score2>
-6.047052

>  <$File>
outputs/pdb_4j58_cleaned.pdb_2024_06_17__22_47_40_V2_BS398_MIN1_/SDF/sdf_db.sdf

> <Rec_index>
1

>  <PLIF_raw>
[[],[],[],[],[]]

>  <PLIF_ligidx>
[]

$$$$
207
  MOE2022           3D

 56 59  0  0  1  0  0  0  0  0999 V2000
    8.4110   20.9240   18.1340 C   0  0  0  0  0  0  0  0  0  0  0  0
    7.9660   21.4860   16.9460 C   0  0  0  0  0  0  0  0  0  0  0  0
    7.5680   20.0920   18.8600 C   0  0  0  0  0  0  0  0  0  0  0  0
    6.2810   19.8230   18.4030 C   0  0  0  0  0  0  0  0  0  0  0  0
    6.6750   21.2150   16.4950 C   0  0  0  0  0  0  0  0  0  0  0  0
    6.3050   21.8310   15.3330 O   0  0  0  0  0  0  0  0  0  0  0  0
    5.8010   20.3650   17.2050 C   0  0  0  0  0  0  0  0  0  0  0  0
    4.3440   20.0600   16.7880 C   0  0  2  0  0  0  0  0  0  0  0  0
    3.9070   18.6510   17.0100 N   0  0  0  0  0  0  0  0  0  0  0  0
    3.9970   20.3600   15.3980 N   0  0  0  0  0  0  0  0  0  0  0  0
    3.1480   18.2670   15.7980 C   0  0  2  0  0  0  0  0  0  0  0  0
    3.3720   19.4230   14.8670 C   0  0  0  0  0  0  0  0  0  0  0  0
    2.8280   19.4960   13.4470 C   0  0  2  0  0  0  0  0  0  0  0  0
    1.6520   17.9760   16.0530 C   0  0  0  0  0  0  0  0  0  0  0  0
    2.8140   18.1810   12.6580 C   0  0  0  0  0  0  0  0  0  0  0  0
    3.1110   18.5590   18.2490 C   0  0  0  0  0  0  0  0  0  0  0  0
    3.5640   20.4760   12.5160 C   0  0  0  0  0  0  0  0  0  0  0  0
    2.8190   18.6390   11.1960 C   0  0  1  0  0  0  0  0  0  0  0  0
    2.3160   17.3330   18.3700 N   0  0  0  0  0  0  0  0  0  0  0  0
    3.5890   19.8600   11.2060 O   0  0  0  0  0  0  0  0  0  0  0  0
    3.2940   17.6340   10.1620 C   0  0  0  0  0  0  0  0  0  0  0  0
    2.2660   16.6710   19.5460 C   0  0  0  0  0  0  0  0  0  0  0  0
    4.4900   17.0360   10.3520 O   0  0  0  0  0  0  0  0  0  0  0  0
    1.4620   17.0030   17.2230 C   0  0  0  0  0  0  0  0  0  0  0  0
    2.6100   17.3360    9.1820 O   0  0  0  0  0  0  0  0  0  0  0  0
    5.0040   16.0580    9.4040 C   0  0  0  0  0  0  0  0  0  0  0  0
    6.1100   15.1950   10.0020 C   0  0  0  0  0  0  0  0  0  0  0  0
    3.0740   16.8670   20.4500 O   0  0  0  0  0  0  0  0  0  0  0  0
    1.1300   15.6810   19.8050 C   0  0  0  0  0  0  0  0  0  0  0  0
    9.3890   21.1270   18.4890 H   0  0  0  0  0  0  0  0  0  0  0  0
    8.6040   22.1230   16.3900 H   0  0  0  0  0  0  0  0  0  0  0  0
    7.9050   19.6600   19.7660 H   0  0  0  0  0  0  0  0  0  0  0  0
    5.6720   19.1910   18.9880 H   0  0  0  0  0  0  0  0  0  0  0  0
    5.3710   21.6060   15.1360 H   0  0  0  0  0  0  0  0  0  0  0  0
    3.7140   20.7060   17.3840 H   0  0  0  0  0  0  0  0  0  0  0  0
    3.6130   17.3790   15.3920 H   0  0  0  0  0  0  0  0  0  0  0  0
    1.8020   19.8340   13.5080 H   0  0  0  0  0  0  0  0  0  0  0  0
    1.1440   18.9110   16.2940 H   0  0  0  0  0  0  0  0  0  0  0  0
    1.1900   17.5570   15.1590 H   0  0  0  0  0  0  0  0  0  0  0  0
    3.7240   17.6210   12.8650 H   0  0  0  0  0  0  0  0  0  0  0  0
    1.9410   17.5670   12.8770 H   0  0  0  0  0  0  0  0  0  0  0  0
    3.7600   18.6780   19.1020 H   0  0  0  0  0  0  0  0  0  0  0  0
    2.4340   19.4010   18.2820 H   0  0  0  0  0  0  0  0  0  0  0  0
    3.0460   21.4330   12.4550 H   0  0  0  0  0  0  0  0  0  0  0  0
    4.5930   20.6380   12.8320 H   0  0  0  0  0  0  0  0  0  0  0  0
    1.8120   18.9360   10.9340 H   0  0  0  0  0  0  0  0  0  0  0  0
    0.4200   16.9900   17.5120 H   0  0  0  0  0  0  0  0  0  0  0  0
    1.6970   16.0020   16.8880 H   0  0  0  0  0  0  0  0  0  0  0  0
    4.1930   15.4010    9.0860 H   0  0  0  0  0  0  0  0  0  0  0  0
    5.3930   16.5870    8.5320 H   0  0  0  0  0  0  0  0  0  0  0  0
    6.9380   15.8290   10.3050 H   0  0  0  0  0  0  0  0  0  0  0  0
    5.7260   14.6540   10.8670 H   0  0  0  0  0  0  0  0  0  0  0  0
    6.4560   14.4800    9.2560 H   0  0  0  0  0  0  0  0  0  0  0  0
    0.1790   16.2130   19.8050 H   0  0  0  0  0  0  0  0  0  0  0  0
    1.1110   14.9160   19.0360 H   0  0  0  0  0  0  0  0  0  0  0  0
    1.2730   15.2060   20.7750 H   0  0  0  0  0  0  0  0  0  0  0  0
  1  2  1  0  0  0  0
  1  3  2  0  0  0  0
  1 30  1  0  0  0  0
  2  5  2  0  0  0  0
  2 31  1  0  0  0  0
  3  4  1  0  0  0  0
  3 32  1  0  0  0  0
  4  7  2  0  0  0  0
  4 33  1  0  0  0  0
  5  6  1  0  0  0  0
  5  7  1  0  0  0  0
  6 34  1  0  0  0  0
  7  8  1  0  0  0  0
  8  9  1  0  0  0  0
  8 10  1  0  0  0  0
  8 35  1  0  0  0  0
  9 11  1  0  0  0  0
  9 16  1  0  0  0  0
 10 12  2  0  0  0  0
 11 12  1  0  0  0  0
 11 14  1  0  0  0  0
 11 36  1  0  0  0  0
 12 13  1  0  0  0  0
 13 15  1  0  0  0  0
 13 17  1  0  0  0  0
 13 37  1  0  0  0  0
 14 24  1  0  0  0  0
 14 38  1  0  0  0  0
 14 39  1  0  0  0  0
 15 18  1  0  0  0  0
 15 40  1  0  0  0  0
 15 41  1  0  0  0  0
 16 19  1  0  0  0  0
 16 42  1  0  0  0  0
 16 43  1  0  0  0  0
 17 20  1  0  0  0  0
 17 44  1  0  0  0  0
 17 45  1  0  0  0  0
 18 20  1  0  0  0  0
 18 21  1  0  0  0  0
 18 46  1  0  0  0  0
 19 22  1  0  0  0  0
 19 24  1  0  0  0  0
 21 23  1  0  0  0  0
 21 25  2  0  0  0  0
 22 28  2  0  0  0  0
 22 29  1  0  0  0  0
 23 26  1  0  0  0  0
 24 47  1  0  0  0  0
 24 48  1  0  0  0  0
 26 27  1  0  0  0  0
 26 49  1  0  0  0  0
 26 50  1  0  0  0  0
 27 51  1  0  0  0  0
 27 52  1  0  0  0  0
 27 53  1  0  0  0  0
 29 54  1  0  0  0  0
 29 55  1  0  0  0  0
 29 56  1  0  0  0  0
M  END
> <rseq>
1

> <mseq>
208

> <S>
-6.790799

> <rmsd_refine>
1.347107

> <E_conf>
-43.52553

> <E_score1>
-9.442204

> <E_refine>
-39.26964

> <E_score2>
-6.790799

>  <$File>
outputs/pdb_4j58_cleaned.pdb_2024_06_17__22_47_40_V2_BS398_MIN1_/SDF/sdf_db.sdf

> <Rec_index>
1

>  <PLIF_raw>
[[9,23],[954,823],[62,54],[2,2],[1.9,0.5]]

> <FP:PLIF>
6 20 23

>  <PLIF_ligidx>
[23,9,9]

$$$$
208
  MOE2022           3D

 51 53  0  0  0  0  0  0  0  0999 V2000
    6.3130   14.2460   10.0050 C   0  0  0  0  0  0  0  0  0  0  0  0
    5.8510   15.4650    9.5170 C   0  0  0  0  0  0  0  0  0  0  0  0
    4.5110   15.8070    9.6540 C   0  0  0  0  0  0  0  0  0  0  0  0
    3.6220   14.9300   10.2870 C   0  0  0  0  0  0  0  0  0  0  0  0
    4.0900   13.6930   10.7440 C   0  0  0  0  0  0  0  0  0  0  0  0
    5.4310   13.3570   10.6100 C   0  0  0  0  0  0  0  0  0  0  0  0
    2.2360   15.3120   10.5250 C   0  0  0  0  0  0  0  0  0  0  0  0
    1.9400   16.0710   11.6480 N   0  0  0  0  0  0  0  0  0  0  0  0
    1.3270   14.9580    9.7810 O   0  0  0  0  0  0  0  0  0  0  0  0
    2.9550   16.3650   12.6680 C   0  0  0  0  0  0  0  0  0  0  0  0
    0.5880   16.0660   12.2330 C   0  0  0  0  0  0  0  0  0  0  0  0
    2.8910   15.3450   13.8180 C   0  0  0  0  0  0  0  0  0  0  0  0
    0.4910   15.0810   13.4160 C   0  0  0  0  0  0  0  0  0  0  0  0
    1.5540   15.2840   14.4310 N   0  0  0  0  0  0  0  0  0  0  0  0
    1.2460   16.1340   15.5250 C   0  0  0  0  0  0  0  0  0  0  0  0
    2.0520   17.2350   15.8600 C   0  0  0  0  0  0  0  0  0  0  0  0
    0.1160   15.8430   16.3000 C   0  0  0  0  0  0  0  0  0  0  0  0
    1.7230   18.0340   16.9490 C   0  0  0  0  0  0  0  0  0  0  0  0
    2.5610   19.2480   17.2940 C   0  0  0  0  0  0  0  0  0  0  0  0
    3.7570   18.9640   18.1000 N   0  0  0  0  0  0  0  0  0  0  0  0
   -0.1920   16.6330   17.3980 C   0  0  0  0  0  0  0  0  0  0  0  0
    0.6110   17.7220   17.7240 C   0  0  0  0  0  0  0  0  0  0  0  0
    3.5910   17.9840   19.0900 O   0  0  0  0  0  0  0  0  0  0  0  0
    4.9170   19.7050   18.1010 C   0  0  0  0  0  0  0  0  0  0  0  0
    5.7810   19.4540   18.9340 O   0  0  0  0  0  0  0  0  0  0  0  0
    5.0700   20.8220   17.0860 C   0  0  0  0  0  0  0  0  0  0  0  0
    6.4180   21.5000   17.0880 C   0  0  0  0  0  0  0  0  0  0  0  0
    7.2320   21.1600   16.2000 O   0  0  0  0  0  0  0  0  0  0  0  0
    6.6320   22.3540   17.9760 O   0  5  0  0  0  0  0  0  0  0  0  0
    7.3350   13.9910    9.9220 H   0  0  0  0  0  0  0  0  0  0  0  0
    6.5200   16.1340    9.0410 H   0  0  0  0  0  0  0  0  0  0  0  0
    4.1630   16.7390    9.2890 H   0  0  0  0  0  0  0  0  0  0  0  0
    3.4210   13.0160   11.2100 H   0  0  0  0  0  0  0  0  0  0  0  0
    5.7840   12.4250   10.9730 H   0  0  0  0  0  0  0  0  0  0  0  0
    3.9490   16.3990   12.2520 H   0  0  0  0  0  0  0  0  0  0  0  0
    2.7850   17.3590   13.0560 H   0  0  0  0  0  0  0  0  0  0  0  0
    0.3490   17.0610   12.5850 H   0  0  0  0  0  0  0  0  0  0  0  0
   -0.1670   15.8330   11.4950 H   0  0  0  0  0  0  0  0  0  0  0  0
    3.1400   14.3660   13.4330 H   0  0  0  0  0  0  0  0  0  0  0  0
    3.6470   15.5520   14.5630 H   0  0  0  0  0  0  0  0  0  0  0  0
   -0.4940   15.1450   13.8530 H   0  0  0  0  0  0  0  0  0  0  0  0
    0.5740   14.0760   13.0270 H   0  0  0  0  0  0  0  0  0  0  0  0
    2.9080   17.4770   15.2900 H   0  0  0  0  0  0  0  0  0  0  0  0
   -0.4910   15.0070   16.0670 H   0  0  0  0  0  0  0  0  0  0  0  0
    2.8280   19.7470   16.3740 H   0  0  0  0  0  0  0  0  0  0  0  0
    1.9520   19.9670   17.8260 H   0  0  0  0  0  0  0  0  0  0  0  0
   -1.0380   16.4050   17.9930 H   0  0  0  0  0  0  0  0  0  0  0  0
    0.3800   18.3160   18.5660 H   0  0  0  0  0  0  0  0  0  0  0  0
    4.4440   17.9660   19.5690 H   0  0  0  0  0  0  0  0  0  0  0  0
    4.8790   20.4290   16.0970 H   0  0  0  0  0  0  0  0  0  0  0  0
    4.3020   21.5600   17.2730 H   0  0  0  0  0  0  0  0  0  0  0  0
  1  2  1  0  0  0  0
  1  6  2  0  0  0  0
  1 30  1  0  0  0  0
  2  3  2  0  0  0  0
  2 31  1  0  0  0  0
  3  4  1  0  0  0  0
  3 32  1  0  0  0  0
  4  5  2  0  0  0  0
  4  7  1  0  0  0  0
  5  6  1  0  0  0  0
  5 33  1  0  0  0  0
  6 34  1  0  0  0  0
  7  8  1  0  0  0  0
  7  9  2  0  0  0  0
  8 10  1  0  0  0  0
  8 11  1  0  0  0  0
 10 12  1  0  0  0  0
 10 35  1  0  0  0  0
 10 36  1  0  0  0  0
 11 13  1  0  0  0  0
 11 37  1  0  0  0  0
 11 38  1  0  0  0  0
 12 14  1  0  0  0  0
 12 39  1  0  0  0  0
 12 40  1  0  0  0  0
 13 14  1  0  0  0  0
 13 41  1  0  0  0  0
 13 42  1  0  0  0  0
 14 15  1  0  0  0  0
 15 16  2  0  0  0  0
 15 17  1  0  0  0  0
 16 18  1  0  0  0  0
 16 43  1  0  0  0  0
 17 21  2  0  0  0  0
 17 44  1  0  0  0  0
 18 19  1  0  0  0  0
 18 22  2  0  0  0  0
 19 20  1  0  0  0  0
 19 45  1  0  0  0  0
 19 46  1  0  0  0  0
 20 23  1  0  0  0  0
 20 24  1  0  0  0  0
 21 22  1  0  0  0  0
 21 47  1  0  0  0  0
 22 48  1  0  0  0  0
 23 49  1  0  0  0  0
 24 25  2  0  0  0  0
 24 26  1  0  0  0  0
 26 27  1  0  0  0  0
 26 50  1  0  0  0  0
 26 51  1  0  0  0  0
 27 28  2  0  0  0  0
 27 29  1  0  0  0  0
M  CHG  1  29  -1
M  END
> <rseq>
1

> <mseq>
209

> <S>
-5.955843

> <rmsd_refine>
1.096814

> <E_conf>
-80.17941

> <E_score1>
-9.917743

> <E_refine>
-30.19678

> <E_score2>
-5.955843

>  <$File>
outputs/pdb_4j58_cleaned.pdb_2024_06_17__22_47_40_V2_BS398_MIN1_/SDF/sdf_db.sdf

> <Rec_index>
1

>  <PLIF_raw>
[[28,28,1,6,5,4,3,2],[826,826,823,823,823,823,823,823],[54,54,54,54,54,54,54,54],[2,7,10,10,10,10,10,10],[4.8,4.361201489,0.8,0.8,0.8,0.8,0.8,0.8]]

> <FP:PLIF>
6 19 1 16 2

>  <PLIF_ligidx>
[28,28,28,28,[1,6,5,4,3,2]]

$$$$
209
  MOE2022           3D

 50 52  0  0  1  0  0  0  0  0999 V2000
    1.4090   15.9630   19.2670 C   0  0  0  0  0  0  0  0  0  0  0  0
    1.9080   16.4720   18.0700 C   0  0  0  0  0  0  0  0  0  0  0  0
    0.0390   15.8140   19.4440 C   0  0  0  0  0  0  0  0  0  0  0  0
   -0.8200   16.1830   18.4120 C   0  0  0  0  0  0  0  0  0  0  0  0
   -2.1660   16.0340   18.5690 O   0  0  0  0  0  0  0  0  0  0  0  0
    1.0410   16.8540   17.0390 C   0  0  0  0  0  0  0  0  0  0  0  0
   -0.3330   16.7080   17.2170 C   0  0  0  0  0  0  0  0  0  0  0  0
    1.5770   17.4010   15.7240 C   0  0  1  0  0  0  0  0  0  0  0  0
    2.0240   18.8000   15.7490 N   0  0  0  0  0  0  0  0  0  0  0  0
    2.4820   19.4480   17.0080 C   0  0  0  0  0  0  0  0  0  0  0  0
    2.2890   19.4800   14.5690 C   0  0  0  0  0  0  0  0  0  0  0  0
    2.4320   20.7050   14.5710 O   0  0  0  0  0  0  0  0  0  0  0  0
    2.6120   16.5540   15.2390 O   0  0  0  0  0  0  0  0  0  0  0  0
    2.8210   16.4250   13.8930 C   0  0  0  0  0  0  0  0  0  0  0  0
    3.1180   15.1490   13.4270 C   0  0  0  0  0  0  0  0  0  0  0  0
    2.7700   17.5070   13.0000 C   0  0  0  0  0  0  0  0  0  0  0  0
    3.9850   19.3980   17.2180 C   0  0  0  0  0  0  0  0  0  0  0  0
    2.4050   18.8400   13.3460 N   0  0  0  0  0  0  0  0  0  0  0  0
    3.4380   14.9530   12.0870 C   0  0  0  0  0  0  0  0  0  0  0  0
    3.4600   16.0310   11.2030 C   0  0  0  0  0  0  0  0  0  0  0  0
    4.6100   20.0530   18.4370 C   0  0  0  0  0  0  0  0  0  0  0  0
    3.1070   17.3020   11.6590 C   0  0  0  0  0  0  0  0  0  0  0  0
    3.8810   15.8050    9.7600 C   0  0  0  0  0  0  0  0  0  0  0  0
    4.6750   18.8150   16.4320 O   0  0  0  0  0  0  0  0  0  0  0  0
    6.1090   20.3900   18.3050 C   0  0  0  0  0  0  0  0  0  0  0  0
    5.3040   15.3060    9.6010 C   0  0  0  0  0  0  0  0  0  0  0  0
    5.4840   14.2390    8.9740 O   0  5  0  0  0  0  0  0  0  0  0  0
    6.2230   16.0030   10.0850 O   0  0  0  0  0  0  0  0  0  0  0  0
    6.6860   21.1030   19.5300 C   0  0  0  0  0  0  0  0  0  0  0  0
    2.0780   15.6840   20.0400 H   0  0  0  0  0  0  0  0  0  0  0  0
    2.9550   16.5680   17.9420 H   0  0  0  0  0  0  0  0  0  0  0  0
   -0.3470   15.4250   20.3500 H   0  0  0  0  0  0  0  0  0  0  0  0
   -2.3760   15.6570   19.4450 H   0  0  0  0  0  0  0  0  0  0  0  0
   -1.0080   16.9870   16.4500 H   0  0  0  0  0  0  0  0  0  0  0  0
    0.7700   17.3360   15.0040 H   0  0  0  0  0  0  0  0  0  0  0  0
    2.1660   20.4820   17.0200 H   0  0  0  0  0  0  0  0  0  0  0  0
    1.9770   19.0470   17.8740 H   0  0  0  0  0  0  0  0  0  0  0  0
    3.1090   14.3280   14.0910 H   0  0  0  0  0  0  0  0  0  0  0  0
    2.3910   19.4950   12.5490 H   0  0  0  0  0  0  0  0  0  0  0  0
    3.6820   13.9810   11.7420 H   0  0  0  0  0  0  0  0  0  0  0  0
    4.0630   20.9570   18.6650 H   0  0  0  0  0  0  0  0  0  0  0  0
    4.4650   19.4030   19.2880 H   0  0  0  0  0  0  0  0  0  0  0  0
    3.1030   18.1200   10.9850 H   0  0  0  0  0  0  0  0  0  0  0  0
    3.1980   15.1030    9.3020 H   0  0  0  0  0  0  0  0  0  0  0  0
    3.7710   16.7180    9.1920 H   0  0  0  0  0  0  0  0  0  0  0  0
    6.6690   19.4690   18.1550 H   0  0  0  0  0  0  0  0  0  0  0  0
    6.2520   21.0250   17.4290 H   0  0  0  0  0  0  0  0  0  0  0  0
    7.7550   21.2670   19.3850 H   0  0  0  0  0  0  0  0  0  0  0  0
    6.1950   22.0670   19.6560 H   0  0  0  0  0  0  0  0  0  0  0  0
    6.5390   20.4920   20.4200 H   0  0  0  0  0  0  0  0  0  0  0  0
  1  2  2  0  0  0  0
  1  3  1  0  0  0  0
  1 30  1  0  0  0  0
  2  6  1  0  0  0  0
  2 31  1  0  0  0  0
  3  4  2  0  0  0  0
  3 32  1  0  0  0  0
  4  5  1  0  0  0  0
  4  7  1  0  0  0  0
  5 33  1  0  0  0  0
  6  7  2  0  0  0  0
  6  8  1  0  0  0  0
  7 34  1  0  0  0  0
  8  9  1  0  0  0  0
  8 13  1  0  0  0  0
  8 35  1  0  0  0  0
  9 10  1  0  0  0  0
  9 11  1  0  0  0  0
 10 17  1  0  0  0  0
 10 36  1  0  0  0  0
 10 37  1  0  0  0  0
 11 12  2  0  0  0  0
 11 18  1  0  0  0  0
 13 14  1  0  0  0  0
 14 15  2  0  0  0  0
 14 16  1  0  0  0  0
 15 19  1  0  0  0  0
 15 38  1  0  0  0  0
 16 18  1  0  0  0  0
 16 22  2  0  0  0  0
 17 21  1  0  0  0  0
 17 24  2  0  0  0  0
 18 39  1  0  0  0  0
 19 20  2  0  0  0  0
 19 40  1  0  0  0  0
 20 22  1  0  0  0  0
 20 23  1  0  0  0  0
 21 25  1  0  0  0  0
 21 41  1  0  0  0  0
 21 42  1  0  0  0  0
 22 43  1  0  0  0  0
 23 26  1  0  0  0  0
 23 44  1  0  0  0  0
 23 45  1  0  0  0  0
 25 29  1  0  0  0  0
 25 46  1  0  0  0  0
 25 47  1  0  0  0  0
 26 27  1  0  0  0  0
 26 28  2  0  0  0  0
 29 48  1  0  0  0  0
 29 49  1  0  0  0  0
 29 50  1  0  0  0  0
M  CHG  1  27  -1
M  END
> <rseq>
1

> <mseq>
210

> <S>
-5.880311

> <rmsd_refine>
1.566048

> <E_conf>
-164.8932

> <E_score1>
-12.29914

> <E_refine>
-33.01814

> <E_score2>
-5.880311

>  <$File>
outputs/pdb_4j58_cleaned.pdb_2024_06_17__22_47_40_V2_BS398_MIN1_/SDF/sdf_db.sdf

> <Rec_index>
1

>  <PLIF_raw>
[[28,28,28],[823,823,829],[54,54,54],[2,7,7],[6.9,5.03170638,0.6720858984]]

> <FP:PLIF>
6 19 1 16

>  <PLIF_ligidx>
[28,28,[28,28],28]

$$$$
210
  MOE2022           3D

 55 57  0  0  1  0  0  0  0  0999 V2000
    8.6030   21.0940   18.3950 C   0  0  0  0  0  0  0  0  0  0  0  0
    8.3550   22.2870   17.7250 C   0  0  0  0  0  0  0  0  0  0  0  0
    7.5520   20.2400   18.7070 C   0  0  0  0  0  0  0  0  0  0  0  0
    6.2420   20.5750   18.3580 C   0  0  0  0  0  0  0  0  0  0  0  0
    5.9980   21.7870   17.7120 C   0  0  0  0  0  0  0  0  0  0  0  0
    5.1020   19.6320   18.7050 C   0  0  0  0  0  0  0  0  0  0  0  0
    4.2000   19.1850   17.5540 C   0  0  0  0  0  0  0  0  0  0  0  0
    3.0570   18.3550   17.7290 N   0  0  0  0  0  0  0  0  0  0  0  0
    7.0520   22.6370   17.3900 C   0  0  0  0  0  0  0  0  0  0  0  0
    2.8010   17.5020   18.8480 C   0  0  0  0  0  0  0  0  0  0  0  0
    2.0730   18.3910   16.6210 C   0  0  0  0  0  0  0  0  0  0  0  0
    1.7140   16.5240   18.8130 C   0  0  0  0  0  0  0  0  0  0  0  0
    4.4500   19.5600   16.4210 O   0  0  0  0  0  0  0  0  0  0  0  0
    1.2830   15.7880   19.8700 C   0  0  0  0  0  0  0  0  0  0  0  0
    3.5310   17.5990   19.8230 O   0  0  0  0  0  0  0  0  0  0  0  0
    1.8130   15.8780   21.1110 O   0  0  0  0  0  0  0  0  0  0  0  0
    2.3660   17.4320   15.4850 C   0  0  0  0  0  0  0  0  0  0  0  0
    2.0080   17.6370   14.2080 C   0  0  0  0  0  0  0  0  0  0  0  0
    3.0460   16.1650   15.5810 C   0  0  0  0  0  0  0  0  0  0  0  0
    2.4420   16.4740   13.3260 C   0  0  1  0  0  0  0  0  0  0  0  0
    3.1100   15.5950   14.3690 C   0  0  0  0  0  0  0  0  0  0  0  0
    1.2980   15.7610   12.6130 C   0  0  0  0  0  0  0  0  0  0  0  0
    1.5920   14.9420   11.5820 N   0  0  0  0  0  0  0  0  0  0  0  0
    0.1370   15.8840   13.0080 O   0  0  0  0  0  0  0  0  0  0  0  0
    0.5870   14.1670   10.8670 C   0  0  0  0  0  0  0  0  0  0  0  0
    2.9200   14.6330   11.0690 C   0  0  0  0  0  0  0  0  0  0  0  0
    1.3520   13.0910   10.0900 C   0  0  1  0  0  0  0  0  0  0  0  0
    2.6940   13.7800    9.8220 C   0  0  0  0  0  0  0  0  0  0  0  0
    1.5180   11.8080   10.9170 C   0  0  0  0  0  0  0  0  0  0  0  0
    9.5940   20.8350   18.6660 H   0  0  0  0  0  0  0  0  0  0  0  0
    9.1590   22.9250   17.4710 H   0  0  0  0  0  0  0  0  0  0  0  0
    7.7550   19.3320   19.2120 H   0  0  0  0  0  0  0  0  0  0  0  0
    5.0070   22.0620   17.4550 H   0  0  0  0  0  0  0  0  0  0  0  0
    5.5310   18.7660   19.1730 H   0  0  0  0  0  0  0  0  0  0  0  0
    4.5050   20.0920   19.4750 H   0  0  0  0  0  0  0  0  0  0  0  0
    6.8620   23.5510   16.8880 H   0  0  0  0  0  0  0  0  0  0  0  0
    1.0680   18.2350   16.9860 H   0  0  0  0  0  0  0  0  0  0  0  0
    2.0140   19.3950   16.2190 H   0  0  0  0  0  0  0  0  0  0  0  0
    1.2340   16.3680   17.8840 H   0  0  0  0  0  0  0  0  0  0  0  0
    0.4930   15.0840   19.8040 H   0  0  0  0  0  0  0  0  0  0  0  0
    2.5550   16.5200   21.1200 H   0  0  0  0  0  0  0  0  0  0  0  0
    1.4880   18.4880   13.8500 H   0  0  0  0  0  0  0  0  0  0  0  0
    3.4380   15.7450   16.4710 H   0  0  0  0  0  0  0  0  0  0  0  0
    3.1840   16.8270   12.6240 H   0  0  0  0  0  0  0  0  0  0  0  0
    3.5570   14.6620   14.1510 H   0  0  0  0  0  0  0  0  0  0  0  0
   -0.1300   13.7130   11.5530 H   0  0  0  0  0  0  0  0  0  0  0  0
    0.0640   14.8220   10.1690 H   0  0  0  0  0  0  0  0  0  0  0  0
    3.4690   15.5370   10.8040 H   0  0  0  0  0  0  0  0  0  0  0  0
    3.4740   14.0580   11.8120 H   0  0  0  0  0  0  0  0  0  0  0  0
    0.8420   12.8570    9.1550 H   0  0  0  0  0  0  0  0  0  0  0  0
    2.5970   14.4330    8.9540 H   0  0  0  0  0  0  0  0  0  0  0  0
    3.5050   13.0670    9.6680 H   0  0  0  0  0  0  0  0  0  0  0  0
    2.1040   11.0850   10.3500 H   0  0  0  0  0  0  0  0  0  0  0  0
    2.0210   12.0210   11.8610 H   0  0  0  0  0  0  0  0  0  0  0  0
    0.5380   11.3780   11.1250 H   0  0  0  0  0  0  0  0  0  0  0  0
  1  2  2  0  0  0  0
  1  3  1  0  0  0  0
  1 30  1  0  0  0  0
  2  9  1  0  0  0  0
  2 31  1  0  0  0  0
  3  4  2  0  0  0  0
  3 32  1  0  0  0  0
  4  5  1  0  0  0  0
  4  6  1  0  0  0  0
  5  9  2  0  0  0  0
  5 33  1  0  0  0  0
  6  7  1  0  0  0  0
  6 34  1  0  0  0  0
  6 35  1  0  0  0  0
  7  8  1  0  0  0  0
  7 13  2  0  0  0  0
  8 10  1  0  0  0  0
  8 11  1  0  0  0  0
  9 36  1  0  0  0  0
 10 12  1  0  0  0  0
 10 15  2  0  0  0  0
 11 17  1  0  0  0  0
 11 37  1  0  0  0  0
 11 38  1  0  0  0  0
 12 14  2  0  0  0  0
 12 39  1  0  0  0  0
 14 16  1  0  0  0  0
 14 40  1  0  0  0  0
 16 41  1  0  0  0  0
 17 18  2  0  0  0  0
 17 19  1  0  0  0  0
 18 20  1  0  0  0  0
 18 42  1  0  0  0  0
 19 21  2  0  0  0  0
 19 43  1  0  0  0  0
 20 21  1  0  0  0  0
 20 22  1  0  0  0  0
 20 44  1  0  0  0  0
 21 45  1  0  0  0  0
 22 23  1  0  0  0  0
 22 24  2  0  0  0  0
 23 25  1  0  0  0  0
 23 26  1  0  0  0  0
 25 27  1  0  0  0  0
 25 46  1  0  0  0  0
 25 47  1  0  0  0  0
 26 28  1  0  0  0  0
 26 48  1  0  0  0  0
 26 49  1  0  0  0  0
 27 28  1  0  0  0  0
 27 29  1  0  0  0  0
 27 50  1  0  0  0  0
 28 51  1  0  0  0  0
 28 52  1  0  0  0  0
 29 53  1  0  0  0  0
 29 54  1  0  0  0  0
 29 55  1  0  0  0  0
M  END
> <rseq>
1

> <mseq>
211

> <S>
-6.606403

> <rmsd_refine>
1.984951

> <E_conf>
19.84153

> <E_score1>
-9.028288

> <E_refine>
-34.97546

> <E_score2>
-6.606403

>  <$File>
outputs/pdb_4j58_cleaned.pdb_2024_06_17__22_47_40_V2_BS398_MIN1_/SDF/sdf_db.sdf

> <Rec_index>
1

>  <PLIF_raw>
[[],[],[],[],[]]

>  <PLIF_ligidx>
[]

$$$$
211
  MOE2022           3D

 44 48  0  0  1  0  0  0  0  0999 V2000
    5.6830   15.0870    9.6970 C   0  0  0  0  0  0  0  0  0  0  0  0
    5.3360   15.9510    8.6670 C   0  0  0  0  0  0  0  0  0  0  0  0
    4.7720   14.8790   10.7250 C   0  0  0  0  0  0  0  0  0  0  0  0
    6.2000   16.1560    7.6650 F   0  0  0  0  0  0  0  0  0  0  0  0
    3.5320   15.5400   10.7250 C   0  0  0  0  0  0  0  0  0  0  0  0
    2.5860   15.3570   11.8030 C   0  0  0  0  0  0  0  0  0  0  0  0
    4.1160   16.6110    8.6300 C   0  0  0  0  0  0  0  0  0  0  0  0
    3.2140   16.4000    9.6630 C   0  0  0  0  0  0  0  0  0  0  0  0
    2.9140   15.5740   13.1290 N   0  0  0  0  0  0  0  0  0  0  0  0
    1.2550   15.0270   11.7800 C   0  0  0  0  0  0  0  0  0  0  0  0
    1.8040   15.4070   13.9080 C   0  0  0  0  0  0  0  0  0  0  0  0
    1.8200   15.6000   15.3100 N   0  0  0  0  0  0  0  0  0  0  0  0
    0.7670   15.0530   13.0860 C   0  0  0  0  0  0  0  0  0  0  0  0
    0.6230   16.1930   15.8860 C   0  0  0  0  0  0  0  0  0  0  0  0
    2.9400   16.2730   15.9730 C   0  0  0  0  0  0  0  0  0  0  0  0
    2.5300   17.7270   16.2830 C   0  0  2  0  0  0  0  0  0  0  0  0
    3.3070   18.2150   17.5240 C   0  0  0  0  0  0  0  0  0  0  0  0
    0.9700   17.6080   16.3700 C   0  0  2  0  0  0  0  0  0  0  0  0
    2.9030   18.6520   15.1180 C   0  0  0  0  0  0  0  0  0  0  0  0
    3.7570   18.2750   14.2840 O   0  5  0  0  0  0  0  0  0  0  0  0
    2.3900   19.7930   15.0970 O   0  0  0  0  0  0  0  0  0  0  0  0
    3.1580   17.6820   18.7640 O   0  0  0  0  0  0  0  0  0  0  0  0
    4.2100   19.0170   17.4430 O   0  0  0  0  0  0  0  0  0  0  0  0
    2.0860   16.9760   19.2250 C   0  0  0  0  0  0  0  0  0  0  0  0
    2.2030   16.1260   20.2440 O   0  0  0  0  0  0  0  0  0  0  0  0
    0.9860   15.5960   20.4890 N   0  0  0  0  0  0  0  0  0  0  0  0
    0.1600   16.1250   19.6430 C   0  0  0  0  0  0  0  0  0  0  0  0
    0.8170   17.0280   18.8160 C   0  0  0  0  0  0  0  0  0  0  0  0
    0.3130   17.9190   17.7120 C   0  0  0  0  0  0  0  0  0  0  0  0
    6.6200   14.5930    9.6960 H   0  0  0  0  0  0  0  0  0  0  0  0
    5.0100   14.2090   11.5110 H   0  0  0  0  0  0  0  0  0  0  0  0
    3.8790   17.2640    7.8300 H   0  0  0  0  0  0  0  0  0  0  0  0
    2.2790   16.8980    9.6550 H   0  0  0  0  0  0  0  0  0  0  0  0
    3.8330   15.8860   13.4820 H   0  0  0  0  0  0  0  0  0  0  0  0
    0.6970   14.8020   10.9090 H   0  0  0  0  0  0  0  0  0  0  0  0
   -0.2260   14.8460   13.3900 H   0  0  0  0  0  0  0  0  0  0  0  0
   -0.2050   16.2250   15.1910 H   0  0  0  0  0  0  0  0  0  0  0  0
    0.2940   15.5690   16.7050 H   0  0  0  0  0  0  0  0  0  0  0  0
    3.1240   15.7520   16.9020 H   0  0  0  0  0  0  0  0  0  0  0  0
    3.8680   16.1890   15.4290 H   0  0  0  0  0  0  0  0  0  0  0  0
    0.5270   18.2770   15.6310 H   0  0  0  0  0  0  0  0  0  0  0  0
   -0.8730   15.8900   19.6080 H   0  0  0  0  0  0  0  0  0  0  0  0
   -0.7670   17.7960   17.6200 H   0  0  0  0  0  0  0  0  0  0  0  0
    0.5260   18.9550   17.9710 H   0  0  0  0  0  0  0  0  0  0  0  0
  1  2  2  0  0  0  0
  1  3  1  0  0  0  0
  1 30  1  0  0  0  0
  2  4  1  0  0  0  0
  2  7  1  0  0  0  0
  3  5  2  0  0  0  0
  3 31  1  0  0  0  0
  5  6  1  0  0  0  0
  5  8  1  0  0  0  0
  6  9  1  0  0  0  0
  6 10  2  0  0  0  0
  7  8  2  0  0  0  0
  7 32  1  0  0  0  0
  8 33  1  0  0  0  0
  9 11  1  0  0  0  0
  9 34  1  0  0  0  0
 10 13  1  0  0  0  0
 10 35  1  0  0  0  0
 11 12  1  0  0  0  0
 11 13  2  0  0  0  0
 12 14  1  0  0  0  0
 12 15  1  0  0  0  0
 13 36  1  0  0  0  0
 14 18  1  0  0  0  0
 14 37  1  0  0  0  0
 14 38  1  0  0  0  0
 15 16  1  0  0  0  0
 15 39  1  0  0  0  0
 15 40  1  0  0  0  0
 16 17  1  0  0  0  0
 16 18  1  0  0  0  0
 16 19  1  0  0  0  0
 17 22  1  0  0  0  0
 17 23  2  0  0  0  0
 18 29  1  0  0  0  0
 18 41  1  0  0  0  0
 19 20  1  0  0  0  0
 19 21  2  0  0  0  0
 22 24  1  0  0  0  0
 24 25  1  0  0  0  0
 24 28  2  0  0  0  0
 25 26  1  0  0  0  0
 26 27  2  0  0  0  0
 27 28  1  0  0  0  0
 27 42  1  0  0  0  0
 28 29  1  0  0  0  0
 29 43  1  0  0  0  0
 29 44  1  0  0  0  0
M  CHG  1  20  -1
M  END
> <rseq>
1

> <mseq>
212

> <S>
-5.922392

> <rmsd_refine>
1.050941

> <E_conf>
-59.76455

> <E_score1>
-11.1568

> <E_refine>
-26.4844

> <E_score2>
-5.922392

>  <$File>
outputs/pdb_4j58_cleaned.pdb_2024_06_17__22_47_40_V2_BS398_MIN1_/SDF/sdf_db.sdf

> <Rec_index>
1

>  <PLIF_raw>
[[26,20,20,20],[1212,823,826,829],[81,54,54,54],[2,7,7,7],[1.3,2.805428583,3.45032218,0.7457652911]]

> <FP:PLIF>
1 17

>  <PLIF_ligidx>
[[20,20,20],26]

$$$$
212
  MOE2022           3D

 56 57  0  0  1  0  0  0  0  0999 V2000
    3.6960   17.9600   19.3790 O   0  0  0  0  0  0  0  0  0  0  0  0
    2.8040   17.5910   18.6050 C   0  0  0  0  0  0  0  0  0  0  0  0
    1.6890   16.7690   18.9920 C   0  0  0  0  0  0  0  0  0  0  0  0
    2.8830   17.9660   17.2590 N   0  0  0  0  0  0  0  0  0  0  0  0
    0.7800   16.3930   18.0480 C   0  0  0  0  0  0  0  0  0  0  0  0
    1.9420   17.4840   16.3320 C   0  0  0  0  0  0  0  0  0  0  0  0
    0.9410   16.7510   16.7290 N   0  0  0  0  0  0  0  0  0  0  0  0
    2.1490   17.7760   14.9210 C   0  0  0  0  0  0  0  0  0  0  0  0
    4.0090   18.8390   16.8160 C   0  0  0  0  0  0  0  0  0  0  0  0
    1.5540   16.3340   20.4440 C   0  0  0  0  0  0  0  0  0  0  0  0
   -0.4360   15.5460   18.3680 C   0  0  0  0  0  0  0  0  0  0  0  0
    3.9030   20.3370   17.1750 C   0  0  1  0  0  0  0  0  0  0  0  0
    4.8880   20.7270   18.2710 C   0  0  0  0  0  0  0  0  0  0  0  0
    1.8350   19.0360   14.3920 C   0  0  0  0  0  0  0  0  0  0  0  0
    4.0480   21.2150   15.9400 C   0  0  0  0  0  0  0  0  0  0  0  0
    2.0970   19.3320   13.0580 C   0  0  0  0  0  0  0  0  0  0  0  0
    2.6700   18.3760   12.2200 C   0  0  0  0  0  0  0  0  0  0  0  0
    3.0940   21.9700   15.6530 O   0  0  0  0  0  0  0  0  0  0  0  0
    2.7040   16.8120   14.0650 C   0  0  0  0  0  0  0  0  0  0  0  0
    2.9930   15.5610   14.5510 O   0  0  0  0  0  0  0  0  0  0  0  0
    5.0960   21.1190   15.2590 O   0  5  0  0  0  0  0  0  0  0  0  0
    6.2060   20.4890   18.1870 C   0  0  0  0  0  0  0  0  0  0  0  0
    2.9760   17.1120   12.7270 C   0  0  0  0  0  0  0  0  0  0  0  0
    7.2020   20.8550   19.2610 C   0  0  0  0  0  0  0  0  0  0  0  0
    8.4270   21.5810   18.6920 C   0  0  0  0  0  0  0  0  0  0  0  0
    3.5550   16.1340   11.9340 O   0  0  0  0  0  0  0  0  0  0  0  0
    4.0520   16.3180   10.5890 C   0  0  0  0  0  0  0  0  0  0  0  0
    4.9210   15.1360   10.1530 C   0  0  0  0  0  0  0  0  0  0  0  0
    5.5140   15.3560    8.7600 C   0  0  0  0  0  0  0  0  0  0  0  0
    4.9210   18.4670   17.2410 H   0  0  0  0  0  0  0  0  0  0  0  0
    4.2050   18.7340   15.7590 H   0  0  0  0  0  0  0  0  0  0  0  0
    0.7330   16.8450   20.9260 H   0  0  0  0  0  0  0  0  0  0  0  0
    1.3740   15.2710   20.5170 H   0  0  0  0  0  0  0  0  0  0  0  0
    2.4460   16.5320   21.0220 H   0  0  0  0  0  0  0  0  0  0  0  0
   -1.0210   15.9820   19.1650 H   0  0  0  0  0  0  0  0  0  0  0  0
   -1.0890   15.4430   17.5120 H   0  0  0  0  0  0  0  0  0  0  0  0
   -0.1520   14.5500   18.6750 H   0  0  0  0  0  0  0  0  0  0  0  0
    2.9100   20.5040   17.5710 H   0  0  0  0  0  0  0  0  0  0  0  0
    4.4660   21.2090   19.1150 H   0  0  0  0  0  0  0  0  0  0  0  0
    1.4050   19.7770   15.0170 H   0  0  0  0  0  0  0  0  0  0  0  0
    1.8630   20.2930   12.6790 H   0  0  0  0  0  0  0  0  0  0  0  0
    2.8650   18.6180   11.2080 H   0  0  0  0  0  0  0  0  0  0  0  0
    2.6220   15.4500   15.4500 H   0  0  0  0  0  0  0  0  0  0  0  0
    6.6210   20.0100   17.3370 H   0  0  0  0  0  0  0  0  0  0  0  0
    6.7360   21.4700   20.0180 H   0  0  0  0  0  0  0  0  0  0  0  0
    7.5240   19.9530   19.7640 H   0  0  0  0  0  0  0  0  0  0  0  0
    9.1510   21.7880   19.4780 H   0  0  0  0  0  0  0  0  0  0  0  0
    8.9150   20.9670   17.9360 H   0  0  0  0  0  0  0  0  0  0  0  0
    8.1330   22.5250   18.2330 H   0  0  0  0  0  0  0  0  0  0  0  0
    3.2020   16.4190    9.9130 H   0  0  0  0  0  0  0  0  0  0  0  0
    4.6480   17.2310   10.5560 H   0  0  0  0  0  0  0  0  0  0  0  0
    5.7340   15.0020   10.8660 H   0  0  0  0  0  0  0  0  0  0  0  0
    4.3120   14.2300   10.1470 H   0  0  0  0  0  0  0  0  0  0  0  0
    4.7140   15.4850    8.0300 H   0  0  0  0  0  0  0  0  0  0  0  0
    6.1520   16.2400    8.7590 H   0  0  0  0  0  0  0  0  0  0  0  0
    6.1110   14.4860    8.4860 H   0  0  0  0  0  0  0  0  0  0  0  0
  1  2  2  0  0  0  0
  2  3  1  0  0  0  0
  2  4  1  0  0  0  0
  3  5  2  0  0  0  0
  3 10  1  0  0  0  0
  4  6  1  0  0  0  0
  4  9  1  0  0  0  0
  5  7  1  0  0  0  0
  5 11  1  0  0  0  0
  6  7  2  0  0  0  0
  6  8  1  0  0  0  0
  8 14  1  0  0  0  0
  8 19  2  0  0  0  0
  9 12  1  0  0  0  0
  9 30  1  0  0  0  0
  9 31  1  0  0  0  0
 10 32  1  0  0  0  0
 10 33  1  0  0  0  0
 10 34  1  0  0  0  0
 11 35  1  0  0  0  0
 11 36  1  0  0  0  0
 11 37  1  0  0  0  0
 12 13  1  0  0  0  0
 12 15  1  0  0  0  0
 12 38  1  0  0  0  0
 13 22  2  0  0  0  0
 13 39  1  0  0  0  0
 14 16  2  0  0  0  0
 14 40  1  0  0  0  0
 15 18  2  0  0  0  0
 15 21  1  0  0  0  0
 16 17  1  0  0  0  0
 16 41  1  0  0  0  0
 17 23  2  0  0  0  0
 17 42  1  0  0  0  0
 19 20  1  0  0  0  0
 19 23  1  0  0  0  0
 20 43  1  0  0  0  0
 22 24  1  0  0  0  0
 22 44  1  0  0  0  0
 23 26  1  0  0  0  0
 24 25  1  0  0  0  0
 24 45  1  0  0  0  0
 24 46  1  0  0  0  0
 25 47  1  0  0  0  0
 25 48  1  0  0  0  0
 25 49  1  0  0  0  0
 26 27  1  0  0  0  0
 27 28  1  0  0  0  0
 27 50  1  0  0  0  0
 27 51  1  0  0  0  0
 28 29  1  0  0  0  0
 28 52  1  0  0  0  0
 28 53  1  0  0  0  0
 29 54  1  0  0  0  0
 29 55  1  0  0  0  0
 29 56  1  0  0  0  0
M  CHG  1  21  -1
M  END
> <rseq>
1

> <mseq>
213

> <S>
-6.719229

> <rmsd_refine>
0.9386722

> <E_conf>
-91.43452

> <E_score1>
-13.41864

> <E_refine>
-34.45616

> <E_score2>
-6.719229

>  <$File>
outputs/pdb_4j58_cleaned.pdb_2024_06_17__22_47_40_V2_BS398_MIN1_/SDF/sdf_db.sdf

> <Rec_index>
1

>  <PLIF_raw>
[[21,25,25,25,25,25,25],[826,1650,1653,1657,1659,1655,1651],[54,112,112,112,112,112,112],[7,10,10,10,10,10,10],[4.372305896,0.6,0.6,0.6,0.6,0.6,0.6]]

> <FP:PLIF>
1 16 15

>  <PLIF_ligidx>
[21,21,[25,25,25,25,25,25]]

$$$$
213
  MOE2022           3D

 54 56  0  0  1  0  0  0  0  0999 V2000
    7.2680   21.1410   19.3310 C   0  0  0  0  0  0  0  0  0  0  0  0
    6.5010   20.0050   19.1000 C   0  0  0  0  0  0  0  0  0  0  0  0
    5.2060   20.1400   18.6010 C   0  0  0  0  0  0  0  0  0  0  0  0
    4.4920   18.9790   18.3700 O   0  0  0  0  0  0  0  0  0  0  0  0
    3.2050   18.8400   17.6980 C   0  0  1  0  0  0  0  0  0  0  0  0
    4.6690   21.4050   18.3450 C   0  0  0  0  0  0  0  0  0  0  0  0
    6.7420   22.4040   19.0740 C   0  0  0  0  0  0  0  0  0  0  0  0
    5.4450   22.5350   18.5850 C   0  0  0  0  0  0  0  0  0  0  0  0
    3.3290   18.9010   16.1670 C   0  0  0  0  0  0  0  0  0  0  0  0
    4.1460   19.6650   15.6530 O   0  0  0  0  0  0  0  0  0  0  0  0
    2.4720   17.6020   18.2390 C   0  0  0  0  0  0  0  0  0  0  0  0
    2.4230   18.2470   15.3960 N   0  0  0  0  0  0  0  0  0  0  0  0
    1.2230   17.2900   17.4130 C   0  0  0  0  0  0  0  0  0  0  0  0
    0.2590   18.3660   17.5230 N   0  0  0  0  0  0  0  0  0  0  0  0
    1.6780   17.0770   15.9440 C   0  0  1  0  0  0  0  0  0  0  0  0
    0.5730   16.1200   17.9490 N   0  0  0  0  0  0  0  0  0  0  0  0
    2.0790   18.7840   14.0660 C   0  0  0  0  0  0  0  0  0  0  0  0
    0.5710   16.6790   15.0960 O   0  0  0  0  0  0  0  0  0  0  0  0
    2.7300   18.0760   12.8740 C   0  0  0  0  0  0  0  0  0  0  0  0
    3.6260   18.6270   12.2370 O   0  0  0  0  0  0  0  0  0  0  0  0
    2.1490   16.9480   12.4230 O   0  0  0  0  0  0  0  0  0  0  0  0
    2.2860   16.4670   11.0500 C   0  0  0  0  0  0  0  0  0  0  0  0
    3.6450   15.8820   10.6900 C   0  0  0  0  0  0  0  0  0  0  0  0
    4.4810   16.4610    9.7220 C   0  0  0  0  0  0  0  0  0  0  0  0
    4.0390   14.6980   11.3130 C   0  0  0  0  0  0  0  0  0  0  0  0
    4.0950   17.7260    8.9750 C   0  0  0  0  0  0  0  0  0  0  0  0
    5.6970   15.8520    9.4090 C   0  0  0  0  0  0  0  0  0  0  0  0
    5.2480   14.0940   10.9840 C   0  0  0  0  0  0  0  0  0  0  0  0
    6.0800   14.6750   10.0390 C   0  0  0  0  0  0  0  0  0  0  0  0
    8.2580   21.0460   19.6970 H   0  0  0  0  0  0  0  0  0  0  0  0
    6.9010   19.0450   19.2920 H   0  0  0  0  0  0  0  0  0  0  0  0
    2.6010   19.6870   17.9900 H   0  0  0  0  0  0  0  0  0  0  0  0
    3.6870   21.5170   17.9680 H   0  0  0  0  0  0  0  0  0  0  0  0
    7.3320   23.2650   19.2470 H   0  0  0  0  0  0  0  0  0  0  0  0
    5.0490   23.4980   18.3890 H   0  0  0  0  0  0  0  0  0  0  0  0
    3.1410   16.7430   18.1940 H   0  0  0  0  0  0  0  0  0  0  0  0
    2.2030   17.7660   19.2830 H   0  0  0  0  0  0  0  0  0  0  0  0
    0.6530   19.2050   17.1240 H   0  0  0  0  0  0  0  0  0  0  0  0
    0.0450   18.5160   18.4970 H   0  0  0  0  0  0  0  0  0  0  0  0
    2.3560   16.2330   15.9430 H   0  0  0  0  0  0  0  0  0  0  0  0
    0.1760   16.3590   18.8440 H   0  0  0  0  0  0  0  0  0  0  0  0
   -0.1740   15.8710   17.3160 H   0  0  0  0  0  0  0  0  0  0  0  0
    0.9990   18.7610   13.9280 H   0  0  0  0  0  0  0  0  0  0  0  0
    2.3530   19.8390   14.0160 H   0  0  0  0  0  0  0  0  0  0  0  0
    0.9060   16.3890   14.2320 H   0  0  0  0  0  0  0  0  0  0  0  0
    1.5310   15.7090   10.8950 H   0  0  0  0  0  0  0  0  0  0  0  0
    2.0040   17.2710   10.3860 H   0  0  0  0  0  0  0  0  0  0  0  0
    3.4120   14.2460   12.0380 H   0  0  0  0  0  0  0  0  0  0  0  0
    4.0060   18.5700    9.6570 H   0  0  0  0  0  0  0  0  0  0  0  0
    4.8400   17.9860    8.2230 H   0  0  0  0  0  0  0  0  0  0  0  0
    3.1460   17.5920    8.4560 H   0  0  0  0  0  0  0  0  0  0  0  0
    6.3330   16.2780    8.6770 H   0  0  0  0  0  0  0  0  0  0  0  0
    5.5390   13.1910   11.4540 H   0  0  0  0  0  0  0  0  0  0  0  0
    7.0030   14.2160    9.7950 H   0  0  0  0  0  0  0  0  0  0  0  0
  1  2  1  0  0  0  0
  1  7  2  0  0  0  0
  1 30  1  0  0  0  0
  2  3  2  0  0  0  0
  2 31  1  0  0  0  0
  3  4  1  0  0  0  0
  3  6  1  0  0  0  0
  4  5  1  0  0  0  0
  5  9  1  0  0  0  0
  5 11  1  0  0  0  0
  5 32  1  0  0  0  0
  6  8  2  0  0  0  0
  6 33  1  0  0  0  0
  7  8  1  0  0  0  0
  7 34  1  0  0  0  0
  8 35  1  0  0  0  0
  9 10  2  0  0  0  0
  9 12  1  0  0  0  0
 11 13  1  0  0  0  0
 11 36  1  0  0  0  0
 11 37  1  0  0  0  0
 12 15  1  0  0  0  0
 12 17  1  0  0  0  0
 13 14  1  0  0  0  0
 13 15  1  0  0  0  0
 13 16  1  0  0  0  0
 14 38  1  0  0  0  0
 14 39  1  0  0  0  0
 15 18  1  0  0  0  0
 15 40  1  0  0  0  0
 16 41  1  0  0  0  0
 16 42  1  0  0  0  0
 17 19  1  0  0  0  0
 17 43  1  0  0  0  0
 17 44  1  0  0  0  0
 18 45  1  0  0  0  0
 19 20  2  0  0  0  0
 19 21  1  0  0  0  0
 21 22  1  0  0  0  0
 22 23  1  0  0  0  0
 22 46  1  0  0  0  0
 22 47  1  0  0  0  0
 23 24  1  0  0  0  0
 23 25  2  0  0  0  0
 24 26  1  0  0  0  0
 24 27  2  0  0  0  0
 25 28  1  0  0  0  0
 25 48  1  0  0  0  0
 26 49  1  0  0  0  0
 26 50  1  0  0  0  0
 26 51  1  0  0  0  0
 27 29  1  0  0  0  0
 27 52  1  0  0  0  0
 28 29  2  0  0  0  0
 28 53  1  0  0  0  0
 29 54  1  0  0  0  0
M  END
> <rseq>
1

> <mseq>
214

> <S>
-6.213537

> <rmsd_refine>
1.204455

> <E_conf>
-13.05867

> <E_score1>
-9.885386

> <E_refine>
-31.91801

> <E_score2>
-6.213537

>  <$File>
outputs/pdb_4j58_cleaned.pdb_2024_06_17__22_47_40_V2_BS398_MIN1_/SDF/sdf_db.sdf

> <Rec_index>
1

>  <PLIF_raw>
[[],[],[],[],[]]

>  <PLIF_ligidx>
[]

$$$$
214
  MOE2022           3D

 51 53  0  0  1  0  0  0  0  0999 V2000
    3.9620   18.1250   19.4200 O   0  0  0  0  0  0  0  0  0  0  0  0
    3.0400   18.0340   18.6040 C   0  0  0  0  0  0  0  0  0  0  0  0
    1.8400   17.2740   18.8280 C   0  0  0  0  0  0  0  0  0  0  0  0
    3.1710   18.6850   17.3730 N   0  0  0  0  0  0  0  0  0  0  0  0
    0.8690   17.2700   17.8710 C   0  0  0  0  0  0  0  0  0  0  0  0
    2.1280   18.6230   16.4340 C   0  0  0  0  0  0  0  0  0  0  0  0
    1.0400   17.9620   16.6940 N   0  0  0  0  0  0  0  0  0  0  0  0
    2.3240   19.2460   15.1330 C   0  0  0  0  0  0  0  0  0  0  0  0
    4.4800   19.3000   17.0010 C   0  0  0  0  0  0  0  0  0  0  0  0
    1.6980   16.4800   20.1190 C   0  0  0  0  0  0  0  0  0  0  0  0
   -0.4230   16.4840   17.9810 C   0  0  0  0  0  0  0  0  0  0  0  0
    4.7030   20.8070   17.2740 C   0  0  1  0  0  0  0  0  0  0  0  0
    5.1010   21.0980   18.7370 C   0  0  0  0  0  0  0  0  0  0  0  0
    2.0330   20.5960   14.9130 C   0  0  0  0  0  0  0  0  0  0  0  0
    5.7660   21.3410   16.2920 C   0  0  0  0  0  0  0  0  0  0  0  0
    2.2410   21.1550   13.6570 C   0  0  0  0  0  0  0  0  0  0  0  0
    2.7330   20.3770   12.6130 C   0  0  0  0  0  0  0  0  0  0  0  0
    5.4720   21.5330   15.1160 O   0  0  0  0  0  0  0  0  0  0  0  0
    2.8080   18.4710   14.0780 C   0  0  0  0  0  0  0  0  0  0  0  0
    3.0250   19.0180   12.8110 C   0  0  0  0  0  0  0  0  0  0  0  0
    6.5610   20.6910   18.9990 C   0  0  1  0  0  0  0  0  0  0  0  0
    3.5650   18.1550   11.7690 C   0  0  0  0  0  0  0  0  0  0  0  0
    7.0430   21.4260   16.6960 N   0  0  0  0  0  0  0  0  0  0  0  0
    3.8350   18.5150   10.4880 C   0  0  0  0  0  0  0  0  0  0  0  0
    4.4520   17.6230    9.5250 C   0  0  0  0  0  0  0  0  0  0  0  0
    4.4550   17.9520    8.3100 O   0  5  0  0  0  0  0  0  0  0  0  0
    5.0070   16.5600    9.9270 O   0  0  0  0  0  0  0  0  0  0  0  0
    7.4500   21.5470   18.0910 C   0  0  0  0  0  0  0  0  0  0  0  0
    6.8900   20.9220   20.3510 O   0  0  0  0  0  0  0  0  0  0  0  0
    5.2750   18.7690   17.4880 H   0  0  0  0  0  0  0  0  0  0  0  0
    4.6790   19.1050   15.9580 H   0  0  0  0  0  0  0  0  0  0  0  0
    0.9070   16.8820   20.7370 H   0  0  0  0  0  0  0  0  0  0  0  0
    1.4660   15.4450   19.9120 H   0  0  0  0  0  0  0  0  0  0  0  0
    2.6000   16.4800   20.7150 H   0  0  0  0  0  0  0  0  0  0  0  0
   -0.7180   16.2900   19.0010 H   0  0  0  0  0  0  0  0  0  0  0  0
   -1.2420   17.0120   17.5120 H   0  0  0  0  0  0  0  0  0  0  0  0
   -0.3310   15.5280   17.4840 H   0  0  0  0  0  0  0  0  0  0  0  0
    3.7610   21.3150   17.0660 H   0  0  0  0  0  0  0  0  0  0  0  0
    4.9890   22.1670   18.9250 H   0  0  0  0  0  0  0  0  0  0  0  0
    4.4450   20.5710   19.4200 H   0  0  0  0  0  0  0  0  0  0  0  0
    1.6530   21.1920   15.7020 H   0  0  0  0  0  0  0  0  0  0  0  0
    2.0220   22.1790   13.4940 H   0  0  0  0  0  0  0  0  0  0  0  0
    2.8860   20.8260   11.6670 H   0  0  0  0  0  0  0  0  0  0  0  0
    3.0190   17.4460   14.2460 H   0  0  0  0  0  0  0  0  0  0  0  0
    6.7110   19.6340   18.7740 H   0  0  0  0  0  0  0  0  0  0  0  0
    3.7710   17.1600   12.0710 H   0  0  0  0  0  0  0  0  0  0  0  0
    7.7370   21.6680   16.0050 H   0  0  0  0  0  0  0  0  0  0  0  0
    3.6120   19.4870   10.1360 H   0  0  0  0  0  0  0  0  0  0  0  0
    7.3830   22.5930   18.3940 H   0  0  0  0  0  0  0  0  0  0  0  0
    8.4860   21.2190   18.1910 H   0  0  0  0  0  0  0  0  0  0  0  0
    7.8140   20.6910   20.4850 H   0  0  0  0  0  0  0  0  0  0  0  0
  1  2  2  0  0  0  0
  2  3  1  0  0  0  0
  2  4  1  0  0  0  0
  3  5  2  0  0  0  0
  3 10  1  0  0  0  0
  4  6  1  0  0  0  0
  4  9  1  0  0  0  0
  5  7  1  0  0  0  0
  5 11  1  0  0  0  0
  6  7  2  0  0  0  0
  6  8  1  0  0  0  0
  8 14  1  0  0  0  0
  8 19  2  0  0  0  0
  9 12  1  0  0  0  0
  9 30  1  0  0  0  0
  9 31  1  0  0  0  0
 10 32  1  0  0  0  0
 10 33  1  0  0  0  0
 10 34  1  0  0  0  0
 11 35  1  0  0  0  0
 11 36  1  0  0  0  0
 11 37  1  0  0  0  0
 12 13  1  0  0  0  0
 12 15  1  0  0  0  0
 12 38  1  0  0  0  0
 13 21  1  0  0  0  0
 13 39  1  0  0  0  0
 13 40  1  0  0  0  0
 14 16  2  0  0  0  0
 14 41  1  0  0  0  0
 15 18  2  0  0  0  0
 15 23  1  0  0  0  0
 16 17  1  0  0  0  0
 16 42  1  0  0  0  0
 17 20  2  0  0  0  0
 17 43  1  0  0  0  0
 19 20  1  0  0  0  0
 19 44  1  0  0  0  0
 20 22  1  0  0  0  0
 21 28  1  0  0  0  0
 21 29  1  0  0  0  0
 21 45  1  0  0  0  0
 22 24  2  0  0  0  0
 22 46  1  0  0  0  0
 23 28  1  0  0  0  0
 23 47  1  0  0  0  0
 24 25  1  0  0  0  0
 24 48  1  0  0  0  0
 25 26  1  0  0  0  0
 25 27  2  0  0  0  0
 28 49  1  0  0  0  0
 28 50  1  0  0  0  0
 29 51  1  0  0  0  0
M  CHG  1  26  -1
M  END
> <rseq>
1

> <mseq>
215

> <S>
-5.824773

> <rmsd_refine>
1.835092

> <E_conf>
-140.4855

> <E_score1>
-10.58809

> <E_refine>
-34.5442

> <E_score2>
-5.824773

>  <$File>
outputs/pdb_4j58_cleaned.pdb_2024_06_17__22_47_40_V2_BS398_MIN1_/SDF/sdf_db.sdf

> <Rec_index>
1

>  <PLIF_raw>
[[18,27,27,27,2,4,6,7,5,3],[826,823,823,829,954,954,954,954,954,954],[54,54,54,54,62,62,62,62,62,62],[2,2,7,7,10,10,10,10,10,10],[0.5,3,3.126496946,0.6698240049,1.2,1.2,1.2,1.2,1.2,1.2]]

> <FP:PLIF>
6 19 1 21 30

>  <PLIF_ligidx>
[[18,27],27,[27,27],[2,4,6,7,5,3],[2,4,6,7,5,3]]

$$$$
215
  MOE2022           3D

 67 68  0  0  1  0  0  0  0  0999 V2000
    8.1150   21.4180   18.8140 C   0  0  0  0  0  0  0  0  0  0  0  0
    7.7440   20.5760   17.7720 C   0  0  0  0  0  0  0  0  0  0  0  0
    7.1700   22.2590   19.3910 C   0  0  0  0  0  0  0  0  0  0  0  0
    5.8570   22.2570   18.9280 C   0  0  0  0  0  0  0  0  0  0  0  0
    6.4320   20.5740   17.3130 C   0  0  0  0  0  0  0  0  0  0  0  0
    5.4750   21.4060   17.8940 C   0  0  0  0  0  0  0  0  0  0  0  0
    4.0250   21.3990   17.4320 C   0  0  0  0  0  0  0  0  0  0  0  0
    3.5420   20.1250   16.8620 N   0  0  0  0  0  0  0  0  0  0  0  0
    3.5450   18.9900   17.5960 C   0  0  0  0  0  0  0  0  0  0  0  0
    3.0660   20.1510   15.4800 C   0  0  0  0  0  0  0  0  0  0  0  0
    2.8970   17.6920   17.0530 C   0  0  2  0  0  0  0  0  0  0  0  0
    4.0830   18.9350   18.7010 O   0  0  0  0  0  0  0  0  0  0  0  0
    2.4940   17.6980   15.5570 C   0  0  1  0  0  0  0  0  0  0  0  0
    1.7640   17.2490   17.9030 N   0  3  0  0  0  0  0  0  0  0  0  0
    3.2270   18.7980   14.7870 C   0  0  0  0  0  0  0  0  0  0  0  0
    2.7730   16.3280   14.9230 C   0  0  0  0  0  0  0  0  0  0  0  0
    2.1770   16.0510   13.7560 N   0  0  0  0  0  0  0  0  0  0  0  0
    3.5350   15.5440   15.4800 O   0  0  0  0  0  0  0  0  0  0  0  0
    2.2620   16.5760   19.1190 C   0  0  0  0  0  0  0  0  0  0  0  0
    1.1300   16.2570   20.0910 C   0  0  0  0  0  0  0  0  0  0  0  0
    1.7080   15.7450   21.4130 C   0  0  0  0  0  0  0  0  0  0  0  0
    2.2010   14.7400   13.1130 C   0  0  0  0  0  0  0  0  0  0  0  0
    2.3900   14.7880   11.5890 C   0  0  0  0  0  0  0  0  0  0  0  0
    3.8330   14.6530   11.1300 C   0  0  0  0  0  0  0  0  0  0  0  0
    4.5630   15.5860   10.4930 C   0  0  0  0  0  0  0  0  0  0  0  0
    4.0660   16.9850   10.1690 C   0  0  0  0  0  0  0  0  0  0  0  0
    3.4640   17.1030    8.7610 C   0  0  0  0  0  0  0  0  0  0  0  0
    5.9580   15.2600    9.9920 C   0  0  0  0  0  0  0  0  0  0  0  0
    3.0010   18.5220    8.4240 C   0  0  0  0  0  0  0  0  0  0  0  0
    9.1150   21.4180   19.1660 H   0  0  0  0  0  0  0  0  0  0  0  0
    8.4590   19.9310   17.3320 H   0  0  0  0  0  0  0  0  0  0  0  0
    7.4490   22.8980   20.1860 H   0  0  0  0  0  0  0  0  0  0  0  0
    5.1440   22.9040   19.3680 H   0  0  0  0  0  0  0  0  0  0  0  0
    6.1580   19.9250   16.5260 H   0  0  0  0  0  0  0  0  0  0  0  0
    3.3880   21.6620   18.2670 H   0  0  0  0  0  0  0  0  0  0  0  0
    3.8860   22.2020   16.7210 H   0  0  0  0  0  0  0  0  0  0  0  0
    2.0280   20.4570   15.4600 H   0  0  0  0  0  0  0  0  0  0  0  0
    3.6060   20.8980   14.9140 H   0  0  0  0  0  0  0  0  0  0  0  0
    3.6730   16.9380   17.1520 H   0  0  0  0  0  0  0  0  0  0  0  0
    1.4250   17.9070   15.4830 H   0  0  0  0  0  0  0  0  0  0  0  0
    1.2180   18.0570   18.1670 H   0  0  0  0  0  0  0  0  0  0  0  0
    1.1840   16.5980   17.3910 H   0  0  0  0  0  0  0  0  0  0  0  0
    2.8350   18.8650   13.7710 H   0  0  0  0  0  0  0  0  0  0  0  0
    4.2850   18.5490   14.7370 H   0  0  0  0  0  0  0  0  0  0  0  0
    1.5930   16.7540   13.3270 H   0  0  0  0  0  0  0  0  0  0  0  0
    2.7790   15.6570   18.8420 H   0  0  0  0  0  0  0  0  0  0  0  0
    2.9630   17.2310   19.6350 H   0  0  0  0  0  0  0  0  0  0  0  0
    0.5700   17.1700   20.2890 H   0  0  0  0  0  0  0  0  0  0  0  0
    0.4610   15.5100   19.6610 H   0  0  0  0  0  0  0  0  0  0  0  0
    2.5720   16.3420   21.7030 H   0  0  0  0  0  0  0  0  0  0  0  0
    0.9540   15.8290   22.1930 H   0  0  0  0  0  0  0  0  0  0  0  0
    2.0140   14.7060   21.3130 H   0  0  0  0  0  0  0  0  0  0  0  0
    2.9760   14.1110   13.5500 H   0  0  0  0  0  0  0  0  0  0  0  0
    1.2430   14.2620   13.3240 H   0  0  0  0  0  0  0  0  0  0  0  0
    1.8470   13.9530   11.1680 H   0  0  0  0  0  0  0  0  0  0  0  0
    1.8960   15.6550   11.1750 H   0  0  0  0  0  0  0  0  0  0  0  0
    4.2450   13.6960   11.3260 H   0  0  0  0  0  0  0  0  0  0  0  0
    3.3480   17.3160   10.9050 H   0  0  0  0  0  0  0  0  0  0  0  0
    4.8830   17.6860   10.2610 H   0  0  0  0  0  0  0  0  0  0  0  0
    4.2130   16.7980    8.0290 H   0  0  0  0  0  0  0  0  0  0  0  0
    2.6120   16.4250    8.6840 H   0  0  0  0  0  0  0  0  0  0  0  0
    5.9710   15.1640    8.9150 H   0  0  0  0  0  0  0  0  0  0  0  0
    6.6730   16.0270   10.2490 H   0  0  0  0  0  0  0  0  0  0  0  0
    6.3290   14.3280   10.3970 H   0  0  0  0  0  0  0  0  0  0  0  0
    2.5850   18.5400    7.4160 H   0  0  0  0  0  0  0  0  0  0  0  0
    2.2330   18.8400    9.1310 H   0  0  0  0  0  0  0  0  0  0  0  0
    3.8460   19.2100    8.4740 H   0  0  0  0  0  0  0  0  0  0  0  0
  1  2  1  0  0  0  0
  1  3  2  0  0  0  0
  1 30  1  0  0  0  0
  2  5  2  0  0  0  0
  2 31  1  0  0  0  0
  3  4  1  0  0  0  0
  3 32  1  0  0  0  0
  4  6  2  0  0  0  0
  4 33  1  0  0  0  0
  5  6  1  0  0  0  0
  5 34  1  0  0  0  0
  6  7  1  0  0  0  0
  7  8  1  0  0  0  0
  7 35  1  0  0  0  0
  7 36  1  0  0  0  0
  8  9  1  0  0  0  0
  8 10  1  0  0  0  0
  9 11  1  0  0  0  0
  9 12  2  0  0  0  0
 10 15  1  0  0  0  0
 10 37  1  0  0  0  0
 10 38  1  0  0  0  0
 11 13  1  0  0  0  0
 11 14  1  0  0  0  0
 11 39  1  0  0  0  0
 13 15  1  0  0  0  0
 13 16  1  0  0  0  0
 13 40  1  0  0  0  0
 14 19  1  0  0  0  0
 14 41  1  0  0  0  0
 14 42  1  0  0  0  0
 15 43  1  0  0  0  0
 15 44  1  0  0  0  0
 16 17  1  0  0  0  0
 16 18  2  0  0  0  0
 17 22  1  0  0  0  0
 17 45  1  0  0  0  0
 19 20  1  0  0  0  0
 19 46  1  0  0  0  0
 19 47  1  0  0  0  0
 20 21  1  0  0  0  0
 20 48  1  0  0  0  0
 20 49  1  0  0  0  0
 21 50  1  0  0  0  0
 21 51  1  0  0  0  0
 21 52  1  0  0  0  0
 22 23  1  0  0  0  0
 22 53  1  0  0  0  0
 22 54  1  0  0  0  0
 23 24  1  0  0  0  0
 23 55  1  0  0  0  0
 23 56  1  0  0  0  0
 24 25  2  0  0  0  0
 24 57  1  0  0  0  0
 25 26  1  0  0  0  0
 25 28  1  0  0  0  0
 26 27  1  0  0  0  0
 26 58  1  0  0  0  0
 26 59  1  0  0  0  0
 27 29  1  0  0  0  0
 27 60  1  0  0  0  0
 27 61  1  0  0  0  0
 28 62  1  0  0  0  0
 28 63  1  0  0  0  0
 28 64  1  0  0  0  0
 29 65  1  0  0  0  0
 29 66  1  0  0  0  0
 29 67  1  0  0  0  0
M  CHG  1  14   1
M  END
> <rseq>
1

> <mseq>
216

> <S>
-7.325428

> <rmsd_refine>
0.9876474

> <E_conf>
-27.58424

> <E_score1>
-10.05315

> <E_refine>
-33.74396

> <E_score2>
-7.325428

>  <$File>
outputs/pdb_4j58_cleaned.pdb_2024_06_17__22_47_40_V2_BS398_MIN1_/SDF/sdf_db.sdf

> <Rec_index>
1

>  <PLIF_raw>
[[19,18],[1617,1067],[110,71],[1,4],[0.7,0.6]]

> <FP:PLIF>
34 26

>  <PLIF_ligidx>
[18,19]

$$$$
216
  MOE2022           3D

 46 49  0  0  0  0  0  0  0  0999 V2000
    7.0800   20.8590   18.9070 C   0  0  0  0  0  0  0  0  0  0  0  0
    6.1410   19.8590   18.6760 C   0  0  0  0  0  0  0  0  0  0  0  0
    4.9830   20.1070   17.9250 C   0  0  0  0  0  0  0  0  0  0  0  0
    4.0100   19.0340   17.6800 C   0  0  0  0  0  0  0  0  0  0  0  0
    3.4980   18.7810   16.3990 C   0  0  0  0  0  0  0  0  0  0  0  0
    3.5550   18.2500   18.7430 C   0  0  0  0  0  0  0  0  0  0  0  0
    2.5670   17.2710   18.5770 C   0  0  0  0  0  0  0  0  0  0  0  0
    2.5180   17.8110   16.2030 C   0  0  0  0  0  0  0  0  0  0  0  0
    2.0550   16.5240   19.7230 C   0  0  0  0  0  0  0  0  0  0  0  0
    2.0640   17.0600   17.2850 C   0  0  0  0  0  0  0  0  0  0  0  0
    1.9030   17.6080   14.8320 C   0  0  0  0  0  0  0  0  0  0  0  0
    0.8640   15.9690   19.7670 N   0  0  0  0  0  0  0  0  0  0  0  0
    2.7220   16.3510   20.8430 N   0  0  0  0  0  0  0  0  0  0  0  0
    1.9140   15.6630   21.6220 N   0  5  0  0  0  0  0  0  0  0  0  0
    2.7840   16.9530   13.8610 N   0  0  0  0  0  0  0  0  0  0  0  0
    4.7920   21.4180   17.4510 C   0  0  0  0  0  0  0  0  0  0  0  0
    2.7800   17.2530   12.5140 C   0  0  0  0  0  0  0  0  0  0  0  0
    0.7830   15.4340   20.9660 N   0  0  0  0  0  0  0  0  0  0  0  0
    3.5470   16.4020   11.6060 C   0  0  0  0  0  0  0  0  0  0  0  0
    3.6540   21.7540   16.7770 O   0  0  0  0  0  0  0  0  0  0  0  0
    2.1520   18.2410   12.1370 O   0  0  0  0  0  0  0  0  0  0  0  0
    4.2550   16.9410   10.5090 C   0  0  0  0  0  0  0  0  0  0  0  0
    6.8800   22.1400   18.4000 C   0  0  0  0  0  0  0  0  0  0  0  0
    5.7310   22.4230   17.6710 C   0  0  0  0  0  0  0  0  0  0  0  0
    3.6250   15.0140   11.8190 C   0  0  0  0  0  0  0  0  0  0  0  0
    4.4180   14.2110   11.0070 C   0  0  0  0  0  0  0  0  0  0  0  0
    4.1920   18.2730   10.2260 O   0  0  0  0  0  0  0  0  0  0  0  0
    5.1430   14.7880    9.9640 C   0  0  0  0  0  0  0  0  0  0  0  0
    5.9470   14.0030    9.1980 O   0  0  0  0  0  0  0  0  0  0  0  0
    5.0600   16.1490    9.6960 C   0  0  0  0  0  0  0  0  0  0  0  0
    7.9530   20.6460   19.4690 H   0  0  0  0  0  0  0  0  0  0  0  0
    6.3110   18.8960   19.0770 H   0  0  0  0  0  0  0  0  0  0  0  0
    3.8470   19.3450   15.5730 H   0  0  0  0  0  0  0  0  0  0  0  0
    3.9560   18.4140   19.7080 H   0  0  0  0  0  0  0  0  0  0  0  0
    1.3140   16.3250   17.1350 H   0  0  0  0  0  0  0  0  0  0  0  0
    0.9940   17.0290   14.9230 H   0  0  0  0  0  0  0  0  0  0  0  0
    1.5780   18.5720   14.4630 H   0  0  0  0  0  0  0  0  0  0  0  0
    3.2690   16.1010   14.1760 H   0  0  0  0  0  0  0  0  0  0  0  0
    3.0310   21.0000   16.7730 H   0  0  0  0  0  0  0  0  0  0  0  0
    7.6010   22.8970   18.5730 H   0  0  0  0  0  0  0  0  0  0  0  0
    5.5670   23.3990   17.2920 H   0  0  0  0  0  0  0  0  0  0  0  0
    3.0810   14.5680   12.6120 H   0  0  0  0  0  0  0  0  0  0  0  0
    4.4750   13.1680   11.1780 H   0  0  0  0  0  0  0  0  0  0  0  0
    3.5100   18.7070   10.7800 H   0  0  0  0  0  0  0  0  0  0  0  0
    5.9070   13.0750    9.5010 H   0  0  0  0  0  0  0  0  0  0  0  0
    5.5980   16.5730    8.8870 H   0  0  0  0  0  0  0  0  0  0  0  0
  1  2  1  0  0  0  0
  1 23  2  0  0  0  0
  1 31  1  0  0  0  0
  2  3  2  0  0  0  0
  2 32  1  0  0  0  0
  3  4  1  0  0  0  0
  3 16  1  0  0  0  0
  4  5  1  0  0  0  0
  4  6  2  0  0  0  0
  5  8  2  0  0  0  0
  5 33  1  0  0  0  0
  6  7  1  0  0  0  0
  6 34  1  0  0  0  0
  7  9  1  0  0  0  0
  7 10  2  0  0  0  0
  8 10  1  0  0  0  0
  8 11  1  0  0  0  0
  9 12  1  0  0  0  0
  9 13  2  0  0  0  0
 10 35  1  0  0  0  0
 11 15  1  0  0  0  0
 11 36  1  0  0  0  0
 11 37  1  0  0  0  0
 12 18  2  0  0  0  0
 13 14  1  0  0  0  0
 14 18  1  0  0  0  0
 15 17  1  0  0  0  0
 15 38  1  0  0  0  0
 16 20  1  0  0  0  0
 16 24  2  0  0  0  0
 17 19  1  0  0  0  0
 17 21  2  0  0  0  0
 19 22  1  0  0  0  0
 19 25  2  0  0  0  0
 20 39  1  0  0  0  0
 22 27  1  0  0  0  0
 22 30  2  0  0  0  0
 23 24  1  0  0  0  0
 23 40  1  0  0  0  0
 24 41  1  0  0  0  0
 25 26  1  0  0  0  0
 25 42  1  0  0  0  0
 26 28  2  0  0  0  0
 26 43  1  0  0  0  0
 27 44  1  0  0  0  0
 28 29  1  0  0  0  0
 28 30  1  0  0  0  0
 29 45  1  0  0  0  0
 30 46  1  0  0  0  0
M  CHG  1  14  -1
M  END
> <rseq>
1

> <mseq>
217

> <S>
-6.479181

> <rmsd_refine>
0.9808618

> <E_conf>
-81.67706

> <E_score1>
-11.44905

> <E_refine>
-38.33713

> <E_score2>
-6.479181

>  <$File>
outputs/pdb_4j58_cleaned.pdb_2024_06_17__22_47_40_V2_BS398_MIN1_/SDF/sdf_db.sdf

> <Rec_index>
1

>  <PLIF_raw>
[[18,18,14,14,18,18,1,1,1,1,1,1,4,6,7,10,8,5],[1206,1212,1206,1212,1206,1212,1651,1655,1659,1657,1653,1650,954,954,954,954,954,954],[81,81,81,81,81,81,112,112,112,112,112,112,62,62,62,62,62,62],[2,2,7,7,7,7,10,10,10,10,10,10,10,10,10,10,10,10],[4,0.7,1.865834869,1.392634724,3.152133197,3.893449636,0.5,0.5,0.5,0.5,0.5,0.5,0.8,0.8,0.8,0.8,0.8,0.8]]

> <FP:PLIF>
21 17 18 24 25 15

>  <PLIF_ligidx>
[[4,6,7,10,8,5],[18,18],18,[14,14,18,18],18,[1,1,1,1,1,1]]

$$$$
217
  MOE2022           3D

 64 66  0  0  1  0  0  0  0  0999 V2000
    8.1200   21.3830   18.7920 C   0  0  0  0  0  0  0  0  0  0  0  0
    7.7300   20.5430   17.7560 C   0  0  0  0  0  0  0  0  0  0  0  0
    7.1850   22.2180   19.3930 C   0  0  0  0  0  0  0  0  0  0  0  0
    5.8630   22.2120   18.9590 C   0  0  0  0  0  0  0  0  0  0  0  0
    6.4070   20.5360   17.3260 C   0  0  0  0  0  0  0  0  0  0  0  0
    5.4600   21.3620   17.9330 C   0  0  0  0  0  0  0  0  0  0  0  0
    4.0000   21.3490   17.5070 C   0  0  0  0  0  0  0  0  0  0  0  0
    3.5070   20.0700   16.9570 N   0  0  0  0  0  0  0  0  0  0  0  0
    3.5310   18.9380   17.6940 C   0  0  0  0  0  0  0  0  0  0  0  0
    2.9990   20.0880   15.5860 C   0  0  0  0  0  0  0  0  0  0  0  0
    2.8530   17.6430   17.1790 C   0  0  2  0  0  0  0  0  0  0  0  0
    4.1030   18.8830   18.7820 O   0  0  0  0  0  0  0  0  0  0  0  0
    2.4330   17.6360   15.6900 C   0  0  1  0  0  0  0  0  0  0  0  0
    1.7260   17.2320   18.0520 N   0  3  0  0  0  0  0  0  0  0  0  0
    3.1490   18.7320   14.8980 C   0  0  0  0  0  0  0  0  0  0  0  0
    2.7210   16.2650   15.0690 C   0  0  0  0  0  0  0  0  0  0  0  0
    1.9560   15.8780   14.0400 N   0  0  0  0  0  0  0  0  0  0  0  0
    3.6410   15.5820   15.5090 O   0  0  0  0  0  0  0  0  0  0  0  0
    2.2450   16.5450   19.2500 C   0  0  0  0  0  0  0  0  0  0  0  0
    1.1390   16.2310   20.2540 C   0  0  0  0  0  0  0  0  0  0  0  0
    1.7630   15.7040   21.5480 C   0  0  0  0  0  0  0  0  0  0  0  0
    2.0680   14.5820   13.3790 C   0  0  0  0  0  0  0  0  0  0  0  0
    1.9620   14.7140   11.8540 C   0  0  0  0  0  0  0  0  0  0  0  0
    3.2380   15.1920   11.1690 C   0  0  0  0  0  0  0  0  0  0  0  0
    3.4100   16.5030   10.6990 C   0  0  0  0  0  0  0  0  0  0  0  0
    4.2610   14.2620   10.9820 C   0  0  0  0  0  0  0  0  0  0  0  0
    2.3370   17.5640   10.8570 C   0  0  0  0  0  0  0  0  0  0  0  0
    4.5910   16.8460   10.0380 C   0  0  0  0  0  0  0  0  0  0  0  0
    5.4390   14.6160   10.3340 C   0  0  0  0  0  0  0  0  0  0  0  0
    5.6000   15.9070    9.8540 C   0  0  0  0  0  0  0  0  0  0  0  0
    9.1270   21.3850   19.1240 H   0  0  0  0  0  0  0  0  0  0  0  0
    8.4370   19.9020   17.2970 H   0  0  0  0  0  0  0  0  0  0  0  0
    7.4780   22.8560   20.1840 H   0  0  0  0  0  0  0  0  0  0  0  0
    5.1570   22.8560   19.4140 H   0  0  0  0  0  0  0  0  0  0  0  0
    6.1180   19.8890   16.5430 H   0  0  0  0  0  0  0  0  0  0  0  0
    3.3830   21.6160   18.3540 H   0  0  0  0  0  0  0  0  0  0  0  0
    3.8420   22.1470   16.7940 H   0  0  0  0  0  0  0  0  0  0  0  0
    1.9600   20.3910   15.5870 H   0  0  0  0  0  0  0  0  0  0  0  0
    3.5240   20.8340   15.0040 H   0  0  0  0  0  0  0  0  0  0  0  0
    3.6150   16.8740   17.2790 H   0  0  0  0  0  0  0  0  0  0  0  0
    1.3610   17.8370   15.6280 H   0  0  0  0  0  0  0  0  0  0  0  0
    1.2090   18.0540   18.3310 H   0  0  0  0  0  0  0  0  0  0  0  0
    1.1180   16.5970   17.5530 H   0  0  0  0  0  0  0  0  0  0  0  0
    2.7350   18.7920   13.8910 H   0  0  0  0  0  0  0  0  0  0  0  0
    4.2080   18.4870   14.8240 H   0  0  0  0  0  0  0  0  0  0  0  0
    1.2330   16.4980   13.7060 H   0  0  0  0  0  0  0  0  0  0  0  0
    2.7410   15.6210   18.9530 H   0  0  0  0  0  0  0  0  0  0  0  0
    2.9710   17.1870   19.7490 H   0  0  0  0  0  0  0  0  0  0  0  0
    0.5940   17.1470   20.4760 H   0  0  0  0  0  0  0  0  0  0  0  0
    0.4510   15.4930   19.8410 H   0  0  0  0  0  0  0  0  0  0  0  0
    2.0320   14.6560   21.4380 H   0  0  0  0  0  0  0  0  0  0  0  0
    2.6580   16.2730   21.7940 H   0  0  0  0  0  0  0  0  0  0  0  0
    1.0530   15.8160   22.3650 H   0  0  0  0  0  0  0  0  0  0  0  0
    3.0120   14.0990   13.6280 H   0  0  0  0  0  0  0  0  0  0  0  0
    1.2560   13.9480   13.7330 H   0  0  0  0  0  0  0  0  0  0  0  0
    1.7330   13.7240   11.4580 H   0  0  0  0  0  0  0  0  0  0  0  0
    1.1110   15.3450   11.6020 H   0  0  0  0  0  0  0  0  0  0  0  0
    4.1400   13.2680   11.3260 H   0  0  0  0  0  0  0  0  0  0  0  0
    1.9910   17.6210   11.8870 H   0  0  0  0  0  0  0  0  0  0  0  0
    2.7100   18.5510   10.5810 H   0  0  0  0  0  0  0  0  0  0  0  0
    1.4850   17.3380   10.2150 H   0  0  0  0  0  0  0  0  0  0  0  0
    4.7220   17.8280    9.6640 H   0  0  0  0  0  0  0  0  0  0  0  0
    6.2070   13.8980   10.2010 H   0  0  0  0  0  0  0  0  0  0  0  0
    6.4900   16.1740    9.3450 H   0  0  0  0  0  0  0  0  0  0  0  0
  1  2  1  0  0  0  0
  1  3  2  0  0  0  0
  1 31  1  0  0  0  0
  2  5  2  0  0  0  0
  2 32  1  0  0  0  0
  3  4  1  0  0  0  0
  3 33  1  0  0  0  0
  4  6  2  0  0  0  0
  4 34  1  0  0  0  0
  5  6  1  0  0  0  0
  5 35  1  0  0  0  0
  6  7  1  0  0  0  0
  7  8  1  0  0  0  0
  7 36  1  0  0  0  0
  7 37  1  0  0  0  0
  8  9  1  0  0  0  0
  8 10  1  0  0  0  0
  9 11  1  0  0  0  0
  9 12  2  0  0  0  0
 10 15  1  0  0  0  0
 10 38  1  0  0  0  0
 10 39  1  0  0  0  0
 11 13  1  0  0  0  0
 11 14  1  0  0  0  0
 11 40  1  0  0  0  0
 13 15  1  0  0  0  0
 13 16  1  0  0  0  0
 13 41  1  0  0  0  0
 14 19  1  0  0  0  0
 14 42  1  0  0  0  0
 14 43  1  0  0  0  0
 15 44  1  0  0  0  0
 15 45  1  0  0  0  0
 16 17  1  0  0  0  0
 16 18  2  0  0  0  0
 17 22  1  0  0  0  0
 17 46  1  0  0  0  0
 19 20  1  0  0  0  0
 19 47  1  0  0  0  0
 19 48  1  0  0  0  0
 20 21  1  0  0  0  0
 20 49  1  0  0  0  0
 20 50  1  0  0  0  0
 21 51  1  0  0  0  0
 21 52  1  0  0  0  0
 21 53  1  0  0  0  0
 22 23  1  0  0  0  0
 22 54  1  0  0  0  0
 22 55  1  0  0  0  0
 23 24  1  0  0  0  0
 23 56  1  0  0  0  0
 23 57  1  0  0  0  0
 24 25  1  0  0  0  0
 24 26  2  0  0  0  0
 25 27  1  0  0  0  0
 25 28  2  0  0  0  0
 26 29  1  0  0  0  0
 26 58  1  0  0  0  0
 27 59  1  0  0  0  0
 27 60  1  0  0  0  0
 27 61  1  0  0  0  0
 28 30  1  0  0  0  0
 28 62  1  0  0  0  0
 29 30  2  0  0  0  0
 29 63  1  0  0  0  0
 30 64  1  0  0  0  0
M  CHG  1  14   1
M  END
> <rseq>
1

> <mseq>
218

> <S>
-7.289849

> <rmsd_refine>
0.7415481

> <E_conf>
-29.76125

> <E_score1>
-10.65901

> <E_refine>
-35.91516

> <E_score2>
-7.289849

>  <$File>
outputs/pdb_4j58_cleaned.pdb_2024_06_17__22_47_40_V2_BS398_MIN1_/SDF/sdf_db.sdf

> <Rec_index>
1

>  <PLIF_raw>
[[19,18],[1617,1067],[110,71],[1,4],[0.7,0.5]]

> <FP:PLIF>
34 26

>  <PLIF_ligidx>
[18,19]

$$$$
218
  MOE2022           3D

 57 60  0  0  1  0  0  0  0  0999 V2000
    3.9650   18.1650   19.3710 O   0  0  0  0  0  0  0  0  0  0  0  0
    3.0590   18.0780   18.5360 C   0  0  0  0  0  0  0  0  0  0  0  0
    1.8510   17.3220   18.7340 C   0  0  0  0  0  0  0  0  0  0  0  0
    3.2200   18.7240   17.3050 N   0  0  0  0  0  0  0  0  0  0  0  0
    0.9070   17.3100   17.7510 C   0  0  0  0  0  0  0  0  0  0  0  0
    2.2050   18.6500   16.3340 C   0  0  0  0  0  0  0  0  0  0  0  0
    1.1120   17.9870   16.5700 N   0  0  0  0  0  0  0  0  0  0  0  0
    2.4340   19.2650   15.0330 C   0  0  0  0  0  0  0  0  0  0  0  0
    4.5370   19.3340   16.9680 C   0  0  0  0  0  0  0  0  0  0  0  0
    1.6730   16.5400   20.0280 C   0  0  0  0  0  0  0  0  0  0  0  0
   -0.3920   16.5320   17.8360 C   0  0  0  0  0  0  0  0  0  0  0  0
    4.7760   20.8290   17.2830 C   0  0  1  0  0  0  0  0  0  0  0  0
    5.1260   21.1110   18.7570 C   0  0  0  0  0  0  0  0  0  0  0  0
    2.3010   20.6430   14.8420 C   0  0  0  0  0  0  0  0  0  0  0  0
    5.8610   21.3790   16.3360 C   0  0  0  0  0  0  0  0  0  0  0  0
    2.5630   21.2010   13.5970 C   0  0  0  0  0  0  0  0  0  0  0  0
    2.9410   20.3930   12.5310 C   0  0  0  0  0  0  0  0  0  0  0  0
    5.5350   21.6590   15.1820 O   0  0  0  0  0  0  0  0  0  0  0  0
    2.7960   18.4570   13.9510 C   0  0  0  0  0  0  0  0  0  0  0  0
    3.0550   19.0030   12.6880 C   0  0  0  0  0  0  0  0  0  0  0  0
    6.5400   20.6080   19.0580 C   0  0  1  0  0  0  0  0  0  0  0  0
    3.4280   18.1400   11.5720 C   0  0  0  0  0  0  0  0  0  0  0  0
    7.1490   21.4550   16.7480 N   0  0  0  0  0  0  0  0  0  0  0  0
    4.0030   18.5220   10.4080 C   0  0  0  0  0  0  0  0  0  0  0  0
    3.2240   16.6250   11.5420 C   0  0  0  0  0  0  0  0  0  0  0  0
    4.2340   17.3820    9.5690 C   0  0  0  0  0  0  0  0  0  0  0  0
    3.8050   16.2720   10.1860 C   0  0  0  0  0  0  0  0  0  0  0  0
    8.1690   22.0250   15.8650 C   0  0  0  0  0  0  0  0  0  0  0  0
    7.5600   21.3120   18.1560 C   0  0  0  0  0  0  0  0  0  0  0  0
    6.8560   20.8360   20.4130 O   0  0  0  0  0  0  0  0  0  0  0  0
    5.3160   18.7770   17.4480 H   0  0  0  0  0  0  0  0  0  0  0  0
    4.7470   19.1670   15.9220 H   0  0  0  0  0  0  0  0  0  0  0  0
    0.8600   16.9410   20.6150 H   0  0  0  0  0  0  0  0  0  0  0  0
    1.4560   15.5010   19.8220 H   0  0  0  0  0  0  0  0  0  0  0  0
    2.5550   16.5530   20.6520 H   0  0  0  0  0  0  0  0  0  0  0  0
   -0.7120   16.3470   18.8500 H   0  0  0  0  0  0  0  0  0  0  0  0
   -1.1970   17.0630   17.3460 H   0  0  0  0  0  0  0  0  0  0  0  0
   -0.2950   15.5730   17.3470 H   0  0  0  0  0  0  0  0  0  0  0  0
    3.8470   21.3510   17.0620 H   0  0  0  0  0  0  0  0  0  0  0  0
    5.0840   22.1870   18.9320 H   0  0  0  0  0  0  0  0  0  0  0  0
    4.4110   20.6320   19.4160 H   0  0  0  0  0  0  0  0  0  0  0  0
    2.0010   21.2640   15.6460 H   0  0  0  0  0  0  0  0  0  0  0  0
    2.4710   22.2480   13.4590 H   0  0  0  0  0  0  0  0  0  0  0  0
    3.1310   20.8380   11.5890 H   0  0  0  0  0  0  0  0  0  0  0  0
    2.8790   17.4120   14.1010 H   0  0  0  0  0  0  0  0  0  0  0  0
    6.5990   19.5360   18.8710 H   0  0  0  0  0  0  0  0  0  0  0  0
    4.2610   19.5150   10.1430 H   0  0  0  0  0  0  0  0  0  0  0  0
    3.7540   16.1240   12.3380 H   0  0  0  0  0  0  0  0  0  0  0  0
    2.1760   16.3680   11.6000 H   0  0  0  0  0  0  0  0  0  0  0  0
    4.6780   17.4170    8.6080 H   0  0  0  0  0  0  0  0  0  0  0  0
    3.8560   15.2920    9.7860 H   0  0  0  0  0  0  0  0  0  0  0  0
    8.0700   21.6700   14.8480 H   0  0  0  0  0  0  0  0  0  0  0  0
    8.0980   23.1040   15.8420 H   0  0  0  0  0  0  0  0  0  0  0  0
    9.1690   21.7750   16.1920 H   0  0  0  0  0  0  0  0  0  0  0  0
    7.7570   22.2980   18.5580 H   0  0  0  0  0  0  0  0  0  0  0  0
    8.5030   20.7850   18.2150 H   0  0  0  0  0  0  0  0  0  0  0  0
    7.7700   20.5790   20.5620 H   0  0  0  0  0  0  0  0  0  0  0  0
  1  2  2  0  0  0  0
  2  3  1  0  0  0  0
  2  4  1  0  0  0  0
  3  5  2  0  0  0  0
  3 10  1  0  0  0  0
  4  6  1  0  0  0  0
  4  9  1  0  0  0  0
  5  7  1  0  0  0  0
  5 11  1  0  0  0  0
  6  7  2  0  0  0  0
  6  8  1  0  0  0  0
  8 14  1  0  0  0  0
  8 19  2  0  0  0  0
  9 12  1  0  0  0  0
  9 31  1  0  0  0  0
  9 32  1  0  0  0  0
 10 33  1  0  0  0  0
 10 34  1  0  0  0  0
 10 35  1  0  0  0  0
 11 36  1  0  0  0  0
 11 37  1  0  0  0  0
 11 38  1  0  0  0  0
 12 13  1  0  0  0  0
 12 15  1  0  0  0  0
 12 39  1  0  0  0  0
 13 21  1  0  0  0  0
 13 40  1  0  0  0  0
 13 41  1  0  0  0  0
 14 16  2  0  0  0  0
 14 42  1  0  0  0  0
 15 18  2  0  0  0  0
 15 23  1  0  0  0  0
 16 17  1  0  0  0  0
 16 43  1  0  0  0  0
 17 20  2  0  0  0  0
 17 44  1  0  0  0  0
 19 20  1  0  0  0  0
 19 45  1  0  0  0  0
 20 22  1  0  0  0  0
 21 29  1  0  0  0  0
 21 30  1  0  0  0  0
 21 46  1  0  0  0  0
 22 24  2  0  0  0  0
 22 25  1  0  0  0  0
 23 28  1  0  0  0  0
 23 29  1  0  0  0  0
 24 26  1  0  0  0  0
 24 47  1  0  0  0  0
 25 27  1  0  0  0  0
 25 48  1  0  0  0  0
 25 49  1  0  0  0  0
 26 27  2  0  0  0  0
 26 50  1  0  0  0  0
 27 51  1  0  0  0  0
 28 52  1  0  0  0  0
 28 53  1  0  0  0  0
 28 54  1  0  0  0  0
 29 55  1  0  0  0  0
 29 56  1  0  0  0  0
 30 57  1  0  0  0  0
M  END
> <rseq>
1

> <mseq>
219

> <S>
-6.20479

> <rmsd_refine>
2.054362

> <E_conf>
-10.85942

> <E_score1>
-8.853492

> <E_refine>
-35.77576

> <E_score2>
-6.20479

>  <$File>
outputs/pdb_4j58_cleaned.pdb_2024_06_17__22_47_40_V2_BS398_MIN1_/SDF/sdf_db.sdf

> <Rec_index>
1

>  <PLIF_raw>
[[2,4,6,7,5,3],[954,954,954,954,954,954],[62,62,62,62,62,62],[10,10,10,10,10,10],[1.2,1.2,1.2,1.2,1.2,1.2]]

> <FP:PLIF>
21 30

>  <PLIF_ligidx>
[[2,4,6,7,5,3],[2,4,6,7,5,3]]

$$$$
219
  MOE2022           3D

 55 57  0  0  1  0  0  0  0  0999 V2000
    3.5470   17.5980   19.5220 O   0  0  0  0  0  0  0  0  0  0  0  0
    2.5550   17.2590   18.8700 C   0  0  0  0  0  0  0  0  0  0  0  0
    1.4660   16.4900   19.4090 C   0  0  0  0  0  0  0  0  0  0  0  0
    2.4820   17.6140   17.5170 N   0  0  0  0  0  0  0  0  0  0  0  0
    0.4560   16.0960   18.5830 C   0  0  0  0  0  0  0  0  0  0  0  0
    1.4780   17.0440   16.7050 C   0  0  0  0  0  0  0  0  0  0  0  0
    0.5020   16.3690   17.2370 N   0  0  0  0  0  0  0  0  0  0  0  0
    1.5980   17.1700   15.2610 C   0  0  0  0  0  0  0  0  0  0  0  0
    3.4930   18.5550   16.9170 C   0  0  0  0  0  0  0  0  0  0  0  0
    1.4740   16.1250   20.8860 C   0  0  0  0  0  0  0  0  0  0  0  0
   -0.7350   15.2870   19.0540 C   0  0  0  0  0  0  0  0  0  0  0  0
    3.6550   19.9400   17.5840 C   0  0  1  0  0  0  0  0  0  0  0  0
    4.8670   20.0930   18.5170 C   0  0  0  0  0  0  0  0  0  0  0  0
    0.7470   18.0090   14.5260 C   0  0  0  0  0  0  0  0  0  0  0  0
    3.9730   21.0590   16.5810 C   0  0  0  0  0  0  0  0  0  0  0  0
    0.9170   18.1620   13.1530 C   0  0  0  0  0  0  0  0  0  0  0  0
    1.9430   17.4700   12.5030 C   0  0  0  0  0  0  0  0  0  0  0  0
    2.1250   17.6570   11.1590 O   0  0  0  0  0  0  0  0  0  0  0  0
    2.5940   16.4570   14.5680 C   0  0  0  0  0  0  0  0  0  0  0  0
    3.4050   15.5970   15.2420 O   0  0  0  0  0  0  0  0  0  0  0  0
    4.7220   22.0890   17.2580 O   0  0  0  0  0  0  0  0  0  0  0  0
    3.3260   18.3380   10.6990 C   0  0  0  0  0  0  0  0  0  0  0  0
    2.7790   16.6030   13.1990 C   0  0  0  0  0  0  0  0  0  0  0  0
    5.2410   21.5530   18.3580 C   0  0  0  0  0  0  0  0  0  0  0  0
    4.1620   17.5200    9.7360 C   0  0  0  0  0  0  0  0  0  0  0  0
    5.8960   22.1960   19.1750 O   0  0  0  0  0  0  0  0  0  0  0  0
    4.7790   16.4480   10.2520 N   0  0  0  0  0  0  0  0  0  0  0  0
    4.2940   17.8550    8.5600 O   0  0  0  0  0  0  0  0  0  0  0  0
    5.6970   15.5830    9.5240 C   0  0  0  0  0  0  0  0  0  0  0  0
    5.4950   14.1330    9.9610 C   0  0  0  0  0  0  0  0  0  0  0  0
    4.4530   18.0730   16.8400 H   0  0  0  0  0  0  0  0  0  0  0  0
    3.2490   18.7600   15.8870 H   0  0  0  0  0  0  0  0  0  0  0  0
    0.7050   16.6630   21.4220 H   0  0  0  0  0  0  0  0  0  0  0  0
    1.3020   15.0680   21.0240 H   0  0  0  0  0  0  0  0  0  0  0  0
    2.4180   16.3430   21.3660 H   0  0  0  0  0  0  0  0  0  0  0  0
   -1.1000   15.6190   20.0150 H   0  0  0  0  0  0  0  0  0  0  0  0
   -1.5630   15.3610   18.3610 H   0  0  0  0  0  0  0  0  0  0  0  0
   -0.4810   14.2390   19.1360 H   0  0  0  0  0  0  0  0  0  0  0  0
    2.7330   20.2040   18.1010 H   0  0  0  0  0  0  0  0  0  0  0  0
    4.6220   19.8730   19.5540 H   0  0  0  0  0  0  0  0  0  0  0  0
    5.6980   19.4760   18.1760 H   0  0  0  0  0  0  0  0  0  0  0  0
   -0.0260   18.5380   15.0230 H   0  0  0  0  0  0  0  0  0  0  0  0
    4.5880   20.6670   15.7690 H   0  0  0  0  0  0  0  0  0  0  0  0
    3.0520   21.4750   16.1710 H   0  0  0  0  0  0  0  0  0  0  0  0
    0.2770   18.8020   12.6020 H   0  0  0  0  0  0  0  0  0  0  0  0
    3.0620   15.4380   16.1460 H   0  0  0  0  0  0  0  0  0  0  0  0
    3.0280   19.2670   10.2320 H   0  0  0  0  0  0  0  0  0  0  0  0
    3.9230   18.6050   11.5610 H   0  0  0  0  0  0  0  0  0  0  0  0
    3.5330   16.0550   12.6980 H   0  0  0  0  0  0  0  0  0  0  0  0
    4.5770   16.1940   11.2070 H   0  0  0  0  0  0  0  0  0  0  0  0
    5.5230   15.6580    8.4500 H   0  0  0  0  0  0  0  0  0  0  0  0
    6.7220   15.8850    9.7390 H   0  0  0  0  0  0  0  0  0  0  0  0
    6.1980   13.4940    9.4280 H   0  0  0  0  0  0  0  0  0  0  0  0
    5.6690   14.0380   11.0330 H   0  0  0  0  0  0  0  0  0  0  0  0
    4.4770   13.8160    9.7300 H   0  0  0  0  0  0  0  0  0  0  0  0
  1  2  2  0  0  0  0
  2  3  1  0  0  0  0
  2  4  1  0  0  0  0
  3  5  2  0  0  0  0
  3 10  1  0  0  0  0
  4  6  1  0  0  0  0
  4  9  1  0  0  0  0
  5  7  1  0  0  0  0
  5 11  1  0  0  0  0
  6  7  2  0  0  0  0
  6  8  1  0  0  0  0
  8 14  1  0  0  0  0
  8 19  2  0  0  0  0
  9 12  1  0  0  0  0
  9 31  1  0  0  0  0
  9 32  1  0  0  0  0
 10 33  1  0  0  0  0
 10 34  1  0  0  0  0
 10 35  1  0  0  0  0
 11 36  1  0  0  0  0
 11 37  1  0  0  0  0
 11 38  1  0  0  0  0
 12 13  1  0  0  0  0
 12 15  1  0  0  0  0
 12 39  1  0  0  0  0
 13 24  1  0  0  0  0
 13 40  1  0  0  0  0
 13 41  1  0  0  0  0
 14 16  2  0  0  0  0
 14 42  1  0  0  0  0
 15 21  1  0  0  0  0
 15 43  1  0  0  0  0
 15 44  1  0  0  0  0
 16 17  1  0  0  0  0
 16 45  1  0  0  0  0
 17 18  1  0  0  0  0
 17 23  2  0  0  0  0
 18 22  1  0  0  0  0
 19 20  1  0  0  0  0
 19 23  1  0  0  0  0
 20 46  1  0  0  0  0
 21 24  1  0  0  0  0
 22 25  1  0  0  0  0
 22 47  1  0  0  0  0
 22 48  1  0  0  0  0
 23 49  1  0  0  0  0
 24 26  2  0  0  0  0
 25 27  1  0  0  0  0
 25 28  2  0  0  0  0
 27 29  1  0  0  0  0
 27 50  1  0  0  0  0
 29 30  1  0  0  0  0
 29 51  1  0  0  0  0
 29 52  1  0  0  0  0
 30 53  1  0  0  0  0
 30 54  1  0  0  0  0
 30 55  1  0  0  0  0
M  END
> <rseq>
1

> <mseq>
220

> <S>
-6.421465

> <rmsd_refine>
0.634106

> <E_conf>
-56.70603

> <E_score1>
-11.51905

> <E_refine>
-33.53693

> <E_score2>
-6.421465

>  <$File>
outputs/pdb_4j58_cleaned.pdb_2024_06_17__22_47_40_V2_BS398_MIN1_/SDF/sdf_db.sdf

> <Rec_index>
1

>  <PLIF_raw>
[[2,4,6,7,5,3],[954,954,954,954,954,954],[62,62,62,62,62,62],[10,10,10,10,10,10],[1.4,1.4,1.4,1.4,1.4,1.4]]

> <FP:PLIF>
21 30

>  <PLIF_ligidx>
[[2,4,6,7,5,3],[2,4,6,7,5,3]]

$$$$
220
  MOE2022           3D

 52 54  0  0  1  0  0  0  0  0999 V2000
    3.6900   17.7660   19.6090 O   0  0  0  0  0  0  0  0  0  0  0  0
    2.7210   17.4970   18.8920 C   0  0  0  0  0  0  0  0  0  0  0  0
    1.6270   16.6590   19.3000 C   0  0  0  0  0  0  0  0  0  0  0  0
    2.6790   18.0260   17.5980 N   0  0  0  0  0  0  0  0  0  0  0  0
    0.6070   16.4280   18.4280 C   0  0  0  0  0  0  0  0  0  0  0  0
    1.5980   17.7270   16.7500 C   0  0  0  0  0  0  0  0  0  0  0  0
    0.6230   16.9730   17.1630 N   0  0  0  0  0  0  0  0  0  0  0  0
    1.5970   18.2750   15.4000 C   0  0  0  0  0  0  0  0  0  0  0  0
    3.7990   18.8970   17.1370 C   0  0  0  0  0  0  0  0  0  0  0  0
    1.6350   16.0620   20.7000 C   0  0  0  0  0  0  0  0  0  0  0  0
   -0.5880   15.5580   18.7640 C   0  0  0  0  0  0  0  0  0  0  0  0
    3.7300   20.3830   17.5600 C   0  0  1  0  0  0  0  0  0  0  0  0
    4.8070   20.7660   18.5970 C   0  0  0  0  0  0  0  0  0  0  0  0
    0.8200   19.3970   15.0980 C   0  0  0  0  0  0  0  0  0  0  0  0
    3.8550   21.2900   16.3530 C   0  0  0  0  0  0  0  0  0  0  0  0
    0.8310   19.9290   13.8160 C   0  0  0  0  0  0  0  0  0  0  0  0
    1.6130   19.3500   12.8220 C   0  0  0  0  0  0  0  0  0  0  0  0
    2.9030   21.7010   15.7280 O   0  0  0  0  0  0  0  0  0  0  0  0
    2.3650   17.6850   14.3900 C   0  0  0  0  0  0  0  0  0  0  0  0
    2.3980   18.2180   13.0960 C   0  0  0  0  0  0  0  0  0  0  0  0
    6.2280   20.7450   17.9930 C   0  0  1  0  0  0  0  0  0  0  0  0
    3.2480   17.5870   12.0920 C   0  0  0  0  0  0  0  0  0  0  0  0
    5.1120   21.6530   15.9190 N   0  0  0  0  0  0  0  0  0  0  0  0
    3.4720   18.0540   10.8350 C   0  0  0  0  0  0  0  0  0  0  0  0
    4.3560   17.4170    9.8750 C   0  0  0  0  0  0  0  0  0  0  0  0
    4.3750   17.8540    8.6960 O   0  5  0  0  0  0  0  0  0  0  0  0
    5.1060   16.4700   10.2390 O   0  0  0  0  0  0  0  0  0  0  0  0
    6.2800   21.3760   16.6020 C   0  0  0  0  0  0  0  0  0  0  0  0
    7.3210   21.6280   16.0300 O   0  0  0  0  0  0  0  0  0  0  0  0
    7.2530   21.3640   18.9630 C   0  0  0  0  0  0  0  0  0  0  0  0
    4.7320   18.4900   17.4820 H   0  0  0  0  0  0  0  0  0  0  0  0
    3.9230   18.8420   16.0660 H   0  0  0  0  0  0  0  0  0  0  0  0
    0.9270   16.5700   21.3390 H   0  0  0  0  0  0  0  0  0  0  0  0
    1.3730   15.0140   20.6800 H   0  0  0  0  0  0  0  0  0  0  0  0
    2.6050   16.1250   21.1740 H   0  0  0  0  0  0  0  0  0  0  0  0
   -0.9980   15.7990   19.7350 H   0  0  0  0  0  0  0  0  0  0  0  0
   -1.3860   15.6800   18.0440 H   0  0  0  0  0  0  0  0  0  0  0  0
   -0.3170   14.5120   18.7690 H   0  0  0  0  0  0  0  0  0  0  0  0
    2.7560   20.5590   17.9980 H   0  0  0  0  0  0  0  0  0  0  0  0
    4.5880   21.7760   18.9460 H   0  0  0  0  0  0  0  0  0  0  0  0
    4.7650   20.0980   19.4560 H   0  0  0  0  0  0  0  0  0  0  0  0
    0.2240   19.8470   15.8510 H   0  0  0  0  0  0  0  0  0  0  0  0
    0.2430   20.7820   13.5940 H   0  0  0  0  0  0  0  0  0  0  0  0
    1.6030   19.7770   11.8540 H   0  0  0  0  0  0  0  0  0  0  0  0
    2.9390   16.8230   14.6140 H   0  0  0  0  0  0  0  0  0  0  0  0
    6.5140   19.7110   17.8690 H   0  0  0  0  0  0  0  0  0  0  0  0
    3.7250   16.6910   12.3980 H   0  0  0  0  0  0  0  0  0  0  0  0
    5.1800   22.1820   15.0360 H   0  0  0  0  0  0  0  0  0  0  0  0
    2.9980   18.9350   10.4920 H   0  0  0  0  0  0  0  0  0  0  0  0
    7.2150   20.8650   19.9320 H   0  0  0  0  0  0  0  0  0  0  0  0
    8.2660   21.2560   18.5720 H   0  0  0  0  0  0  0  0  0  0  0  0
    7.0550   22.4260   19.1110 H   0  0  0  0  0  0  0  0  0  0  0  0
  1  2  2  0  0  0  0
  2  3  1  0  0  0  0
  2  4  1  0  0  0  0
  3  5  2  0  0  0  0
  3 10  1  0  0  0  0
  4  6  1  0  0  0  0
  4  9  1  0  0  0  0
  5  7  1  0  0  0  0
  5 11  1  0  0  0  0
  6  7  2  0  0  0  0
  6  8  1  0  0  0  0
  8 14  1  0  0  0  0
  8 19  2  0  0  0  0
  9 12  1  0  0  0  0
  9 31  1  0  0  0  0
  9 32  1  0  0  0  0
 10 33  1  0  0  0  0
 10 34  1  0  0  0  0
 10 35  1  0  0  0  0
 11 36  1  0  0  0  0
 11 37  1  0  0  0  0
 11 38  1  0  0  0  0
 12 13  1  0  0  0  0
 12 15  1  0  0  0  0
 12 39  1  0  0  0  0
 13 21  1  0  0  0  0
 13 40  1  0  0  0  0
 13 41  1  0  0  0  0
 14 16  2  0  0  0  0
 14 42  1  0  0  0  0
 15 18  2  0  0  0  0
 15 23  1  0  0  0  0
 16 17  1  0  0  0  0
 16 43  1  0  0  0  0
 17 20  2  0  0  0  0
 17 44  1  0  0  0  0
 19 20  1  0  0  0  0
 19 45  1  0  0  0  0
 20 22  1  0  0  0  0
 21 28  1  0  0  0  0
 21 30  1  0  0  0  0
 21 46  1  0  0  0  0
 22 24  2  0  0  0  0
 22 47  1  0  0  0  0
 23 28  1  0  0  0  0
 23 48  1  0  0  0  0
 24 25  1  0  0  0  0
 24 49  1  0  0  0  0
 25 26  1  0  0  0  0
 25 27  2  0  0  0  0
 28 29  2  0  0  0  0
 30 50  1  0  0  0  0
 30 51  1  0  0  0  0
 30 52  1  0  0  0  0
M  CHG  1  26  -1
M  END
> <rseq>
1

> <mseq>
221

> <S>
-5.916752

> <rmsd_refine>
1.184633

> <E_conf>
-183.3175

> <E_score1>
-10.82653

> <E_refine>
-33.92674

> <E_score2>
-5.916752

>  <$File>
outputs/pdb_4j58_cleaned.pdb_2024_06_17__22_47_40_V2_BS398_MIN1_/SDF/sdf_db.sdf

> <Rec_index>
1

>  <PLIF_raw>
[[27,29,27,27,2,4,6,7,5,3],[823,826,823,829,954,954,954,954,954,954],[54,54,54,54,62,62,62,62,62,62],[2,2,7,7,10,10,10,10,10,10],[4.2,0.6,4.94144659,0.9934069574,1.1,1.1,1.1,1.1,1.1,1.1]]

> <FP:PLIF>
6 19 1 16 21 30

>  <PLIF_ligidx>
[[27,29],27,[27,27],27,[2,4,6,7,5,3],[2,4,6,7,5,3]]

$$$$
221
  MOE2022           3D

 57 59  0  0  1  0  0  0  0  0999 V2000
    1.9030   16.3110   20.4840 C   0  0  0  0  0  0  0  0  0  0  0  0
    0.5760   15.9000   20.5070 C   0  0  0  0  0  0  0  0  0  0  0  0
    2.4500   16.8260   19.3140 C   0  0  0  0  0  0  0  0  0  0  0  0
   -0.1990   15.9880   19.3570 C   0  0  0  0  0  0  0  0  0  0  0  0
    0.3470   16.5080   18.1880 C   0  0  0  0  0  0  0  0  0  0  0  0
    1.6720   16.9410   18.1580 C   0  0  0  0  0  0  0  0  0  0  0  0
    2.2410   17.5100   16.8670 C   0  0  1  0  0  0  0  0  0  0  0  0
    3.2260   18.5700   17.1390 N   0  0  0  0  0  0  0  0  0  0  0  0
    2.7890   16.4090   15.9660 C   0  0  0  0  0  0  0  0  0  0  0  0
    3.9150   19.2820   16.1870 C   0  0  0  0  0  0  0  0  0  0  0  0
    2.2110   16.2650   14.7630 N   0  0  0  0  0  0  0  0  0  0  0  0
    3.6220   19.1040   15.0050 O   0  0  0  0  0  0  0  0  0  0  0  0
    4.9640   20.2060   16.6360 C   0  0  0  0  0  0  0  0  0  0  0  0
    3.7460   15.7180   16.3090 O   0  0  0  0  0  0  0  0  0  0  0  0
    2.7520   15.4190   13.7090 C   0  0  1  0  0  0  0  0  0  0  0  0
    1.7760   14.3590   13.2080 C   0  0  0  0  0  0  0  0  0  0  0  0
    3.0280   16.1950   12.4300 C   0  0  0  0  0  0  0  0  0  0  0  0
    5.5720   20.0360   17.8920 C   0  0  0  0  0  0  0  0  0  0  0  0
    2.3380   14.0240   11.8180 C   0  0  0  0  0  0  0  0  0  0  0  0
    5.4210   21.2700   15.8330 C   0  0  0  0  0  0  0  0  0  0  0  0
    3.2010   15.1430   11.4430 N   0  0  0  0  0  0  0  0  0  0  0  0
    6.5940   20.8790   18.3200 C   0  0  0  0  0  0  0  0  0  0  0  0
    4.8860   21.5090   14.6010 O   0  0  0  0  0  0  0  0  0  0  0  0
    4.2260   15.1060   10.5670 C   0  0  0  0  0  0  0  0  0  0  0  0
    7.0290   21.9180   17.4970 C   0  0  0  0  0  0  0  0  0  0  0  0
    6.4420   22.1180   16.2550 C   0  0  0  0  0  0  0  0  0  0  0  0
    7.2460   20.6480   19.6640 C   0  0  0  0  0  0  0  0  0  0  0  0
    4.9730   16.0710   10.4000 O   0  0  0  0  0  0  0  0  0  0  0  0
    4.4670   13.8090    9.7770 C   0  0  0  0  0  0  0  0  0  0  0  0
    5.6630   13.8790    8.8180 C   0  0  0  0  0  0  0  0  0  0  0  0
    2.4990   16.2330   21.3580 H   0  0  0  0  0  0  0  0  0  0  0  0
    0.1550   15.5240   21.3990 H   0  0  0  0  0  0  0  0  0  0  0  0
    3.4640   17.1310   19.3130 H   0  0  0  0  0  0  0  0  0  0  0  0
   -1.2080   15.6660   19.3710 H   0  0  0  0  0  0  0  0  0  0  0  0
   -0.2540   16.5740   17.3170 H   0  0  0  0  0  0  0  0  0  0  0  0
    1.4200   17.9850   16.3440 H   0  0  0  0  0  0  0  0  0  0  0  0
    3.4110   18.7740   18.1320 H   0  0  0  0  0  0  0  0  0  0  0  0
    1.4300   16.8560   14.5220 H   0  0  0  0  0  0  0  0  0  0  0  0
    3.6720   14.9250   14.0250 H   0  0  0  0  0  0  0  0  0  0  0  0
    1.7740   13.4860   13.8570 H   0  0  0  0  0  0  0  0  0  0  0  0
    0.7740   14.7790   13.1110 H   0  0  0  0  0  0  0  0  0  0  0  0
    2.1680   16.8120   12.1630 H   0  0  0  0  0  0  0  0  0  0  0  0
    3.9100   16.8200   12.5440 H   0  0  0  0  0  0  0  0  0  0  0  0
    5.2660   19.2460   18.5270 H   0  0  0  0  0  0  0  0  0  0  0  0
    2.9140   13.1020   11.8810 H   0  0  0  0  0  0  0  0  0  0  0  0
    1.5260   13.9040   11.1000 H   0  0  0  0  0  0  0  0  0  0  0  0
    4.1800   20.8550   14.4100 H   0  0  0  0  0  0  0  0  0  0  0  0
    7.8120   22.5570   17.8170 H   0  0  0  0  0  0  0  0  0  0  0  0
    6.7700   22.9100   15.6320 H   0  0  0  0  0  0  0  0  0  0  0  0
    7.7510   21.5500   20.0120 H   0  0  0  0  0  0  0  0  0  0  0  0
    6.5040   20.3650   20.4100 H   0  0  0  0  0  0  0  0  0  0  0  0
    7.9810   19.8480   19.5860 H   0  0  0  0  0  0  0  0  0  0  0  0
    4.6490   12.9950   10.4800 H   0  0  0  0  0  0  0  0  0  0  0  0
    3.5700   13.5740    9.2030 H   0  0  0  0  0  0  0  0  0  0  0  0
    6.5740   14.0840    9.3810 H   0  0  0  0  0  0  0  0  0  0  0  0
    5.7710   12.9280    8.2970 H   0  0  0  0  0  0  0  0  0  0  0  0
    5.5030   14.6730    8.0870 H   0  0  0  0  0  0  0  0  0  0  0  0
  1  2  2  0  0  0  0
  1  3  1  0  0  0  0
  1 31  1  0  0  0  0
  2  4  1  0  0  0  0
  2 32  1  0  0  0  0
  3  6  2  0  0  0  0
  3 33  1  0  0  0  0
  4  5  2  0  0  0  0
  4 34  1  0  0  0  0
  5  6  1  0  0  0  0
  5 35  1  0  0  0  0
  6  7  1  0  0  0  0
  7  8  1  0  0  0  0
  7  9  1  0  0  0  0
  7 36  1  0  0  0  0
  8 10  1  0  0  0  0
  8 37  1  0  0  0  0
  9 11  1  0  0  0  0
  9 14  2  0  0  0  0
 10 12  2  0  0  0  0
 10 13  1  0  0  0  0
 11 15  1  0  0  0  0
 11 38  1  0  0  0  0
 13 18  1  0  0  0  0
 13 20  2  0  0  0  0
 15 16  1  0  0  0  0
 15 17  1  0  0  0  0
 15 39  1  0  0  0  0
 16 19  1  0  0  0  0
 16 40  1  0  0  0  0
 16 41  1  0  0  0  0
 17 21  1  0  0  0  0
 17 42  1  0  0  0  0
 17 43  1  0  0  0  0
 18 22  2  0  0  0  0
 18 44  1  0  0  0  0
 19 21  1  0  0  0  0
 19 45  1  0  0  0  0
 19 46  1  0  0  0  0
 20 23  1  0  0  0  0
 20 26  1  0  0  0  0
 21 24  1  0  0  0  0
 22 25  1  0  0  0  0
 22 27  1  0  0  0  0
 23 47  1  0  0  0  0
 24 28  2  0  0  0  0
 24 29  1  0  0  0  0
 25 26  2  0  0  0  0
 25 48  1  0  0  0  0
 26 49  1  0  0  0  0
 27 50  1  0  0  0  0
 27 51  1  0  0  0  0
 27 52  1  0  0  0  0
 29 30  1  0  0  0  0
 29 53  1  0  0  0  0
 29 54  1  0  0  0  0
 30 55  1  0  0  0  0
 30 56  1  0  0  0  0
 30 57  1  0  0  0  0
M  END
> <rseq>
1

> <mseq>
222

> <S>
-7.08636

> <rmsd_refine>
1.540956

> <E_conf>
3.87905

> <E_score1>
-9.468302

> <E_refine>
-42.30205

> <E_score2>
-7.08636

>  <$File>
outputs/pdb_4j58_cleaned.pdb_2024_06_17__22_47_40_V2_BS398_MIN1_/SDF/sdf_db.sdf

> <Rec_index>
1

>  <PLIF_raw>
[[14,28,1,3,6,5,4,2],[954,823,1519,1519,1519,1519,1519,1519],[62,54,102,102,102,102,102,102],[2,2,10,10,10,10,10,10],[1.5,2.4,0.5,0.5,0.5,0.5,0.5,0.5]]

> <FP:PLIF>
6 19 20 23 22

>  <PLIF_ligidx>
[28,28,14,14,[1,3,6,5,4,2]]

$$$$
222
  MOE2022           3D

 52 54  0  0  1  0  0  0  0  0999 V2000
    6.2340   14.1370   10.0900 C   0  0  0  0  0  0  0  0  0  0  0  0
    5.9780   15.4750    9.8060 C   0  0  0  0  0  0  0  0  0  0  0  0
    4.7100   16.0010   10.0160 C   0  0  0  0  0  0  0  0  0  0  0  0
    3.6810   15.1940   10.5140 C   0  0  0  0  0  0  0  0  0  0  0  0
    3.9420   13.8410   10.7700 C   0  0  0  0  0  0  0  0  0  0  0  0
    5.2140   13.3190   10.5670 C   0  0  0  0  0  0  0  0  0  0  0  0
    2.3610   15.7670   10.7550 C   0  0  0  0  0  0  0  0  0  0  0  0
    1.8540   15.8290   12.0470 N   0  0  0  0  0  0  0  0  0  0  0  0
    1.6910   16.2280    9.8340 O   0  0  0  0  0  0  0  0  0  0  0  0
    2.7090   15.5800   13.2270 C   0  0  0  0  0  0  0  0  0  0  0  0
    0.6160   16.5960   12.3250 C   0  0  0  0  0  0  0  0  0  0  0  0
    1.9140   15.2080   14.4900 C   0  0  0  0  0  0  0  0  0  0  0  0
   -0.0920   16.1830   13.6290 C   0  0  0  0  0  0  0  0  0  0  0  0
    0.8250   16.1510   14.7850 N   0  0  0  0  0  0  0  0  0  0  0  0
    1.1020   17.3840   15.4500 C   0  0  0  0  0  0  0  0  0  0  0  0
    2.4140   17.7570   15.7900 C   0  0  0  0  0  0  0  0  0  0  0  0
    0.0410   18.2360   15.7890 C   0  0  0  0  0  0  0  0  0  0  0  0
    2.6590   18.9710   16.4210 C   0  0  0  0  0  0  0  0  0  0  0  0
    4.0800   19.3630   16.7720 C   0  0  0  0  0  0  0  0  0  0  0  0
    4.3500   19.3810   18.2160 N   0  0  0  0  0  0  0  0  0  0  0  0
    0.2940   19.4440   16.4270 C   0  0  0  0  0  0  0  0  0  0  0  0
    1.5980   19.8160   16.7400 C   0  0  0  0  0  0  0  0  0  0  0  0
    3.7700   18.3180   18.9280 O   0  0  0  0  0  0  0  0  0  0  0  0
    5.1540   20.2700   18.8930 C   0  0  0  0  0  0  0  0  0  0  0  0
    5.3420   20.0980   20.0940 O   0  0  0  0  0  0  0  0  0  0  0  0
    5.8200   21.4080   18.1310 C   0  0  1  0  0  0  0  0  0  0  0  0
    6.2310   22.5610   19.0260 C   0  0  0  0  0  0  0  0  0  0  0  0
    6.9420   20.9140   17.3350 O   0  0  0  0  0  0  0  0  0  0  0  0
    5.4940   23.5720   19.0350 O   0  5  0  0  0  0  0  0  0  0  0  0
    7.2340   22.4140   19.7590 O   0  0  0  0  0  0  0  0  0  0  0  0
    7.2030   13.7370    9.9450 H   0  0  0  0  0  0  0  0  0  0  0  0
    6.7490   16.0930    9.4290 H   0  0  0  0  0  0  0  0  0  0  0  0
    4.5210   17.0220    9.7980 H   0  0  0  0  0  0  0  0  0  0  0  0
    3.1680   13.2130   11.1310 H   0  0  0  0  0  0  0  0  0  0  0  0
    5.4090   12.2990   10.7770 H   0  0  0  0  0  0  0  0  0  0  0  0
    3.4210   14.7900   13.0480 H   0  0  0  0  0  0  0  0  0  0  0  0
    3.2990   16.4650   13.4190 H   0  0  0  0  0  0  0  0  0  0  0  0
    0.8610   17.6490   12.3790 H   0  0  0  0  0  0  0  0  0  0  0  0
   -0.0870   16.4990   11.5090 H   0  0  0  0  0  0  0  0  0  0  0  0
    1.4910   14.2220   14.3500 H   0  0  0  0  0  0  0  0  0  0  0  0
    2.5790   15.1100   15.3350 H   0  0  0  0  0  0  0  0  0  0  0  0
   -0.9390   16.8300   13.8010 H   0  0  0  0  0  0  0  0  0  0  0  0
   -0.5170   15.1980   13.4940 H   0  0  0  0  0  0  0  0  0  0  0  0
    3.2320   17.1250   15.5700 H   0  0  0  0  0  0  0  0  0  0  0  0
   -0.9580   17.9610   15.5770 H   0  0  0  0  0  0  0  0  0  0  0  0
    4.7730   18.6810   16.3010 H   0  0  0  0  0  0  0  0  0  0  0  0
    4.2890   20.3190   16.3170 H   0  0  0  0  0  0  0  0  0  0  0  0
   -0.5110   20.0850   16.6830 H   0  0  0  0  0  0  0  0  0  0  0  0
    1.7790   20.7390   17.2290 H   0  0  0  0  0  0  0  0  0  0  0  0
    3.5130   18.7010   19.7930 H   0  0  0  0  0  0  0  0  0  0  0  0
    5.1040   21.8010   17.4250 H   0  0  0  0  0  0  0  0  0  0  0  0
    7.7250   20.8280   17.9070 H   0  0  0  0  0  0  0  0  0  0  0  0
  1  2  2  0  0  0  0
  1  6  1  0  0  0  0
  1 31  1  0  0  0  0
  2  3  1  0  0  0  0
  2 32  1  0  0  0  0
  3  4  2  0  0  0  0
  3 33  1  0  0  0  0
  4  5  1  0  0  0  0
  4  7  1  0  0  0  0
  5  6  2  0  0  0  0
  5 34  1  0  0  0  0
  6 35  1  0  0  0  0
  7  8  1  0  0  0  0
  7  9  2  0  0  0  0
  8 10  1  0  0  0  0
  8 11  1  0  0  0  0
 10 12  1  0  0  0  0
 10 36  1  0  0  0  0
 10 37  1  0  0  0  0
 11 13  1  0  0  0  0
 11 38  1  0  0  0  0
 11 39  1  0  0  0  0
 12 14  1  0  0  0  0
 12 40  1  0  0  0  0
 12 41  1  0  0  0  0
 13 14  1  0  0  0  0
 13 42  1  0  0  0  0
 13 43  1  0  0  0  0
 14 15  1  0  0  0  0
 15 16  1  0  0  0  0
 15 17  2  0  0  0  0
 16 18  2  0  0  0  0
 16 44  1  0  0  0  0
 17 21  1  0  0  0  0
 17 45  1  0  0  0  0
 18 19  1  0  0  0  0
 18 22  1  0  0  0  0
 19 20  1  0  0  0  0
 19 46  1  0  0  0  0
 19 47  1  0  0  0  0
 20 23  1  0  0  0  0
 20 24  1  0  0  0  0
 21 22  2  0  0  0  0
 21 48  1  0  0  0  0
 22 49  1  0  0  0  0
 23 50  1  0  0  0  0
 24 25  2  0  0  0  0
 24 26  1  0  0  0  0
 26 27  1  0  0  0  0
 26 28  1  0  0  0  0
 26 51  1  0  0  0  0
 27 29  1  0  0  0  0
 27 30  2  0  0  0  0
 28 52  1  0  0  0  0
M  CHG  1  29  -1
M  END
> <rseq>
1

> <mseq>
223

> <S>
-6.095664

> <rmsd_refine>
1.463358

> <E_conf>
56.84663

> <E_score1>
-10.05127

> <E_refine>
-32.89622

> <E_score2>
-6.095664

>  <$File>
outputs/pdb_4j58_cleaned.pdb_2024_06_17__22_47_40_V2_BS398_MIN1_/SDF/sdf_db.sdf

> <Rec_index>
1

>  <PLIF_raw>
[[23,25,29,30,30],[1504,1499,1872,1866,1872],[101,101,125,125,125],[3,4,7,7,7],[1.5,2.4,4.49361274,0.6188355326,3.178864742]]

> <FP:PLIF>
8 10 11 12 13 31

>  <PLIF_ligidx>
[23,23,25,25,[29,30,30],29]

$$$$
223
  MOE2022           3D

 55 57  0  0  1  0  0  0  0  0999 V2000
    1.6690   15.8790   19.8310 C   0  0  0  0  0  0  0  0  0  0  0  0
    2.1310   16.3800   18.6150 C   0  0  0  0  0  0  0  0  0  0  0  0
    0.3050   15.7250   20.0490 C   0  0  0  0  0  0  0  0  0  0  0  0
   -0.5830   16.0760   19.0380 C   0  0  0  0  0  0  0  0  0  0  0  0
   -1.9220   15.8910   19.2210 O   0  0  0  0  0  0  0  0  0  0  0  0
    1.2340   16.7790   17.6180 C   0  0  0  0  0  0  0  0  0  0  0  0
   -0.1330   16.6170   17.8370 C   0  0  0  0  0  0  0  0  0  0  0  0
    1.7010   17.3180   16.2710 C   0  0  1  0  0  0  0  0  0  0  0  0
    2.4190   18.6220   16.2380 N   0  0  0  0  0  0  0  0  0  0  0  0
    2.8650   19.3270   17.4720 C   0  0  0  0  0  0  0  0  0  0  0  0
    2.1660   19.3850   15.1100 C   0  0  0  0  0  0  0  0  0  0  0  0
    2.0020   20.6050   15.1600 O   0  0  0  0  0  0  0  0  0  0  0  0
    2.4070   16.2900   15.5460 O   0  0  0  0  0  0  0  0  0  0  0  0
    2.7630   16.3340   14.2210 C   0  0  0  0  0  0  0  0  0  0  0  0
    2.9650   15.1580   13.5880 C   0  0  0  0  0  0  0  0  0  0  0  0
    3.0070   17.6770   13.5320 C   0  0  2  0  0  0  0  0  0  0  0  0
    4.1330   20.2080   17.3210 C   0  0  2  0  0  0  0  0  0  0  0  0
    2.0730   18.7430   13.9020 N   0  0  0  0  0  0  0  0  0  0  0  0
    3.4120   15.1000   12.2120 C   0  0  0  0  0  0  0  0  0  0  0  0
    3.5220   16.2050   11.4500 C   0  0  0  0  0  0  0  0  0  0  0  0
    5.1220   19.5070   16.6010 O   0  0  0  0  0  0  0  0  0  0  0  0
    3.9980   16.1330   10.0060 C   0  0  0  0  0  0  0  0  0  0  0  0
    3.0710   17.5560   11.9870 C   0  0  0  0  0  0  0  0  0  0  0  0
    4.6960   20.6690   18.6830 C   0  0  0  0  0  0  0  0  0  0  0  0
    6.0360   21.3860   18.6340 C   0  0  0  0  0  0  0  0  0  0  0  0
    6.1190   22.6950   18.3590 C   0  0  0  0  0  0  0  0  0  0  0  0
    7.2760   20.5560   18.9100 C   0  0  0  0  0  0  0  0  0  0  0  0
    5.2960   15.3750    9.8000 C   0  0  0  0  0  0  0  0  0  0  0  0
    5.2370   14.2310    9.3000 O   0  5  0  0  0  0  0  0  0  0  0  0
    6.3560   15.9480   10.1310 O   0  0  0  0  0  0  0  0  0  0  0  0
    2.3600   15.6080   20.5870 H   0  0  0  0  0  0  0  0  0  0  0  0
    3.1720   16.4570   18.4490 H   0  0  0  0  0  0  0  0  0  0  0  0
   -0.0520   15.3440   20.9690 H   0  0  0  0  0  0  0  0  0  0  0  0
   -2.1130   15.5100   20.0990 H   0  0  0  0  0  0  0  0  0  0  0  0
   -0.8340   16.8900   17.0900 H   0  0  0  0  0  0  0  0  0  0  0  0
    0.7900   17.4690   15.7060 H   0  0  0  0  0  0  0  0  0  0  0  0
    2.0520   19.9270   17.8590 H   0  0  0  0  0  0  0  0  0  0  0  0
    3.0780   18.6140   18.2490 H   0  0  0  0  0  0  0  0  0  0  0  0
    2.8130   14.2400   14.0910 H   0  0  0  0  0  0  0  0  0  0  0  0
    3.9890   17.9940   13.8570 H   0  0  0  0  0  0  0  0  0  0  0  0
    3.8720   21.1000   16.7520 H   0  0  0  0  0  0  0  0  0  0  0  0
    1.8030   19.3500   13.1140 H   0  0  0  0  0  0  0  0  0  0  0  0
    3.6640   14.1480   11.8190 H   0  0  0  0  0  0  0  0  0  0  0  0
    5.4510   18.7850   17.1420 H   0  0  0  0  0  0  0  0  0  0  0  0
    3.2210   15.6840    9.4030 H   0  0  0  0  0  0  0  0  0  0  0  0
    4.1200   17.1290    9.6040 H   0  0  0  0  0  0  0  0  0  0  0  0
    2.0900   17.7520   11.5760 H   0  0  0  0  0  0  0  0  0  0  0  0
    3.7060   18.3430   11.6050 H   0  0  0  0  0  0  0  0  0  0  0  0
    3.9720   21.3310   19.1360 H   0  0  0  0  0  0  0  0  0  0  0  0
    4.7700   19.8200   19.3490 H   0  0  0  0  0  0  0  0  0  0  0  0
    7.0460   23.2080   18.3210 H   0  0  0  0  0  0  0  0  0  0  0  0
    5.2620   23.2860   18.1610 H   0  0  0  0  0  0  0  0  0  0  0  0
    7.4200   19.7970   18.1540 H   0  0  0  0  0  0  0  0  0  0  0  0
    8.1730   21.1600   18.9280 H   0  0  0  0  0  0  0  0  0  0  0  0
    7.2110   20.0560   19.8670 H   0  0  0  0  0  0  0  0  0  0  0  0
  1  2  2  0  0  0  0
  1  3  1  0  0  0  0
  1 31  1  0  0  0  0
  2  6  1  0  0  0  0
  2 32  1  0  0  0  0
  3  4  2  0  0  0  0
  3 33  1  0  0  0  0
  4  5  1  0  0  0  0
  4  7  1  0  0  0  0
  5 34  1  0  0  0  0
  6  7  2  0  0  0  0
  6  8  1  0  0  0  0
  7 35  1  0  0  0  0
  8  9  1  0  0  0  0
  8 13  1  0  0  0  0
  8 36  1  0  0  0  0
  9 10  1  0  0  0  0
  9 11  1  0  0  0  0
 10 17  1  0  0  0  0
 10 37  1  0  0  0  0
 10 38  1  0  0  0  0
 11 12  2  0  0  0  0
 11 18  1  0  0  0  0
 13 14  1  0  0  0  0
 14 15  2  0  0  0  0
 14 16  1  0  0  0  0
 15 19  1  0  0  0  0
 15 39  1  0  0  0  0
 16 18  1  0  0  0  0
 16 23  1  0  0  0  0
 16 40  1  0  0  0  0
 17 21  1  0  0  0  0
 17 24  1  0  0  0  0
 17 41  1  0  0  0  0
 18 42  1  0  0  0  0
 19 20  2  0  0  0  0
 19 43  1  0  0  0  0
 20 22  1  0  0  0  0
 20 23  1  0  0  0  0
 21 44  1  0  0  0  0
 22 28  1  0  0  0  0
 22 45  1  0  0  0  0
 22 46  1  0  0  0  0
 23 47  1  0  0  0  0
 23 48  1  0  0  0  0
 24 25  1  0  0  0  0
 24 49  1  0  0  0  0
 24 50  1  0  0  0  0
 25 26  2  0  0  0  0
 25 27  1  0  0  0  0
 26 51  1  0  0  0  0
 26 52  1  0  0  0  0
 27 53  1  0  0  0  0
 27 54  1  0  0  0  0
 27 55  1  0  0  0  0
 28 29  1  0  0  0  0
 28 30  2  0  0  0  0
M  CHG  1  29  -1
M  END
> <rseq>
1

> <mseq>
224

> <S>
-6.260002

> <rmsd_refine>
1.230524

> <E_conf>
-163.3824

> <E_score1>
-13.01638

> <E_refine>
-34.35094

> <E_score2>
-6.260002

>  <$File>
outputs/pdb_4j58_cleaned.pdb_2024_06_17__22_47_40_V2_BS398_MIN1_/SDF/sdf_db.sdf

> <Rec_index>
1

>  <PLIF_raw>
[[30,30,30],[823,823,829],[54,54,54],[2,7,7],[6.3,5.223640828,0.6541946308]]

> <FP:PLIF>
6 19 1 16

>  <PLIF_ligidx>
[30,30,[30,30],30]

$$$$
224
  MOE2022           3D

 53 55  0  0  1  0  0  0  0  0999 V2000
    1.4800   16.0280   20.3440 C   0  0  0  0  0  0  0  0  0  0  0  0
    0.1330   15.7150   20.2000 C   0  0  0  0  0  0  0  0  0  0  0  0
    2.1820   16.5840   19.2780 C   0  0  0  0  0  0  0  0  0  0  0  0
   -0.5080   15.9450   18.9880 C   0  0  0  0  0  0  0  0  0  0  0  0
    0.1910   16.5090   17.9260 C   0  0  0  0  0  0  0  0  0  0  0  0
    1.5380   16.8440   18.0640 C   0  0  0  0  0  0  0  0  0  0  0  0
    2.2700   17.4720   16.8880 C   0  0  1  0  0  0  0  0  0  0  0  0
    3.2820   18.4400   17.3410 N   0  0  0  0  0  0  0  0  0  0  0  0
    2.8310   16.4180   15.9380 C   0  0  0  0  0  0  0  0  0  0  0  0
    4.0610   19.2200   16.5190 C   0  0  0  0  0  0  0  0  0  0  0  0
    2.3120   16.3850   14.6990 N   0  0  0  0  0  0  0  0  0  0  0  0
    3.8780   19.1340   15.3050 O   0  0  0  0  0  0  0  0  0  0  0  0
    5.0610   20.1020   17.1370 C   0  0  0  0  0  0  0  0  0  0  0  0
    3.7440   15.6670   16.2750 O   0  0  0  0  0  0  0  0  0  0  0  0
    2.8230   15.5500   13.6170 C   0  0  1  0  0  0  0  0  0  0  0  0
    1.9030   14.3750   13.2900 C   0  0  0  0  0  0  0  0  0  0  0  0
    2.9810   16.3050   12.2880 C   0  0  0  0  0  0  0  0  0  0  0  0
    5.4950   19.8750   18.4550 C   0  0  0  0  0  0  0  0  0  0  0  0
    2.1530   14.1170   11.8050 C   0  0  0  0  0  0  0  0  0  0  0  0
    5.6320   21.1930   16.4430 C   0  0  0  0  0  0  0  0  0  0  0  0
    2.4920   15.4290   11.1650 N   0  3  2  0  0  0  0  0  0  0  0  0
    6.4520   20.7060   19.0290 C   0  0  0  0  0  0  0  0  0  0  0  0
    5.2580   21.4930   15.1630 O   0  0  0  0  0  0  0  0  0  0  0  0
    6.8650   20.4670   20.3070 O   0  0  0  0  0  0  0  0  0  0  0  0
    3.4160   15.3310   10.0000 C   0  0  0  0  0  0  0  0  0  0  0  0
    7.0070   21.7760   18.3310 C   0  0  0  0  0  0  0  0  0  0  0  0
    4.8740   15.0100   10.3520 C   0  0  0  0  0  0  0  0  0  0  0  0
    6.5930   22.0180   17.0280 C   0  0  0  0  0  0  0  0  0  0  0  0
    5.6960   15.9460   10.2410 O   0  0  0  0  0  0  0  0  0  0  0  0
    5.1360   13.8500   10.7330 O   0  5  0  0  0  0  0  0  0  0  0  0
    1.9740   15.8460   21.2630 H   0  0  0  0  0  0  0  0  0  0  0  0
   -0.4090   15.3040   21.0100 H   0  0  0  0  0  0  0  0  0  0  0  0
    3.2090   16.8080   19.4000 H   0  0  0  0  0  0  0  0  0  0  0  0
   -1.5320   15.6970   18.8750 H   0  0  0  0  0  0  0  0  0  0  0  0
   -0.3100   16.6860   17.0090 H   0  0  0  0  0  0  0  0  0  0  0  0
    1.5340   18.0450   16.3380 H   0  0  0  0  0  0  0  0  0  0  0  0
    3.3580   18.5760   18.3600 H   0  0  0  0  0  0  0  0  0  0  0  0
    1.5640   17.0240   14.4750 H   0  0  0  0  0  0  0  0  0  0  0  0
    3.7970   15.1410   13.8740 H   0  0  0  0  0  0  0  0  0  0  0  0
    2.1390   13.4990   13.8890 H   0  0  0  0  0  0  0  0  0  0  0  0
    0.8610   14.6640   13.4290 H   0  0  0  0  0  0  0  0  0  0  0  0
    2.4280   17.2340   12.3380 H   0  0  0  0  0  0  0  0  0  0  0  0
    4.0130   16.6060   12.1740 H   0  0  0  0  0  0  0  0  0  0  0  0
    5.1040   19.0700   19.0210 H   0  0  0  0  0  0  0  0  0  0  0  0
    2.9740   13.4160   11.7210 H   0  0  0  0  0  0  0  0  0  0  0  0
    1.3070   13.6180   11.3530 H   0  0  0  0  0  0  0  0  0  0  0  0
    1.6130   15.8230   10.8600 H   0  0  0  0  0  0  0  0  0  0  0  0
    4.5570   20.8750   14.8680 H   0  0  0  0  0  0  0  0  0  0  0  0
    6.5280   19.6060   20.6180 H   0  0  0  0  0  0  0  0  0  0  0  0
    3.0500   14.5640    9.3170 H   0  0  0  0  0  0  0  0  0  0  0  0
    3.4100   16.2840    9.4720 H   0  0  0  0  0  0  0  0  0  0  0  0
    7.7370   22.3930   18.7880 H   0  0  0  0  0  0  0  0  0  0  0  0
    7.0050   22.8270   16.4810 H   0  0  0  0  0  0  0  0  0  0  0  0
  1  2  2  0  0  0  0
  1  3  1  0  0  0  0
  1 31  1  0  0  0  0
  2  4  1  0  0  0  0
  2 32  1  0  0  0  0
  3  6  2  0  0  0  0
  3 33  1  0  0  0  0
  4  5  2  0  0  0  0
  4 34  1  0  0  0  0
  5  6  1  0  0  0  0
  5 35  1  0  0  0  0
  6  7  1  0  0  0  0
  7  8  1  0  0  0  0
  7  9  1  0  0  0  0
  7 36  1  0  0  0  0
  8 10  1  0  0  0  0
  8 37  1  0  0  0  0
  9 11  1  0  0  0  0
  9 14  2  0  0  0  0
 10 12  2  0  0  0  0
 10 13  1  0  0  0  0
 11 15  1  0  0  0  0
 11 38  1  0  0  0  0
 13 18  2  0  0  0  0
 13 20  1  0  0  0  0
 15 16  1  0  0  0  0
 15 17  1  0  0  0  0
 15 39  1  0  0  0  0
 16 19  1  0  0  0  0
 16 40  1  0  0  0  0
 16 41  1  0  0  0  0
 17 21  1  0  0  0  0
 17 42  1  0  0  0  0
 17 43  1  0  0  0  0
 18 22  1  0  0  0  0
 18 44  1  0  0  0  0
 19 21  1  0  0  0  0
 19 45  1  0  0  0  0
 19 46  1  0  0  0  0
 20 23  1  0  0  0  0
 20 28  2  0  0  0  0
 21 25  1  0  0  0  0
 21 47  1  0  0  0  0
 22 24  1  0  0  0  0
 22 26  2  0  0  0  0
 23 48  1  0  0  0  0
 24 49  1  0  0  0  0
 25 27  1  0  0  0  0
 25 50  1  0  0  0  0
 25 51  1  0  0  0  0
 26 28  1  0  0  0  0
 26 52  1  0  0  0  0
 27 29  2  0  0  0  0
 27 30  1  0  0  0  0
 28 53  1  0  0  0  0
M  CHG  1  21   1
M  CHG  1  30  -1
M  END
> <rseq>
1

> <mseq>
225

> <S>
-6.815582

> <rmsd_refine>
1.649017

> <E_conf>
7.246758

> <E_score1>
-10.0733

> <E_refine>
-39.67361

> <E_score2>
-6.815582

>  <$File>
outputs/pdb_4j58_cleaned.pdb_2024_06_17__22_47_40_V2_BS398_MIN1_/SDF/sdf_db.sdf

> <Rec_index>
1

>  <PLIF_raw>
[[14,29,29,29,1,3,6,5,4,2],[954,823,823,829,1519,1519,1519,1519,1519,1519],[62,54,54,54,102,102,102,102,102,102],[2,2,7,7,10,10,10,10,10,10],[1.2,3.8,5.211303525,0.5159115551,0.7,0.7,0.7,0.7,0.7,0.7]]

> <FP:PLIF>
6 19 1 16 20 22

>  <PLIF_ligidx>
[29,29,[29,29],29,14,[1,3,6,5,4,2]]

$$$$
225
  MOE2022           3D

 46 49  0  0  0  0  0  0  0  0999 V2000
    6.7560   20.8040   18.0530 C   0  0  0  0  0  0  0  0  0  0  0  0
    5.7950   19.7980   18.0650 C   0  0  0  0  0  0  0  0  0  0  0  0
    4.7440   19.7810   17.1330 C   0  0  0  0  0  0  0  0  0  0  0  0
    3.7790   18.6690   17.1250 C   0  0  0  0  0  0  0  0  0  0  0  0
    3.3160   18.1050   15.9250 C   0  0  0  0  0  0  0  0  0  0  0  0
    3.3100   18.1350   18.3310 C   0  0  0  0  0  0  0  0  0  0  0  0
    2.3730   17.0930   18.3680 C   0  0  0  0  0  0  0  0  0  0  0  0
    2.3590   17.0930   15.9340 C   0  0  0  0  0  0  0  0  0  0  0  0
    1.9250   16.5190   19.6330 C   0  0  0  0  0  0  0  0  0  0  0  0
    1.8840   16.6080   17.1480 C   0  0  0  0  0  0  0  0  0  0  0  0
    1.7870   16.5400   14.6400 C   0  0  0  0  0  0  0  0  0  0  0  0
    0.7320   15.9990   19.8260 N   0  0  0  0  0  0  0  0  0  0  0  0
    2.6760   16.4460   20.7090 N   0  0  0  0  0  0  0  0  0  0  0  0
    1.9220   15.8530   21.6120 N   0  5  0  0  0  0  0  0  0  0  0  0
    2.7850   16.1360   13.6420 N   0  0  0  0  0  0  0  0  0  0  0  0
    4.6730   20.8610   16.2300 C   0  0  0  0  0  0  0  0  0  0  0  0
    2.8690   16.6760   12.3760 C   0  0  0  0  0  0  0  0  0  0  0  0
    0.7390   15.5870   21.0750 N   0  0  0  0  0  0  0  0  0  0  0  0
    3.7510   16.0320   11.3950 C   0  0  0  0  0  0  0  0  0  0  0  0
    3.6340   20.9780   15.3530 O   0  0  0  0  0  0  0  0  0  0  0  0
    2.2110   17.6850   12.1300 O   0  0  0  0  0  0  0  0  0  0  0  0
    4.3550   16.7560   10.3430 C   0  0  0  0  0  0  0  0  0  0  0  0
    6.6850   21.8330   17.1190 C   0  0  0  0  0  0  0  0  0  0  0  0
    5.6370   21.8660   16.2080 C   0  0  0  0  0  0  0  0  0  0  0  0
    4.0440   14.6630   11.4910 C   0  0  0  0  0  0  0  0  0  0  0  0
    4.9400   14.0750   10.6020 C   0  0  0  0  0  0  0  0  0  0  0  0
    4.1160   18.0900   10.1780 O   0  0  0  0  0  0  0  0  0  0  0  0
    5.2540   12.7530   10.7350 O   0  0  0  0  0  0  0  0  0  0  0  0
    5.5360   14.8050    9.5760 C   0  0  0  0  0  0  0  0  0  0  0  0
    5.2330   16.1530    9.4420 C   0  0  0  0  0  0  0  0  0  0  0  0
    7.5490   20.7850   18.7570 H   0  0  0  0  0  0  0  0  0  0  0  0
    5.8720   19.0300   18.7880 H   0  0  0  0  0  0  0  0  0  0  0  0
    3.6890   18.4550   14.9980 H   0  0  0  0  0  0  0  0  0  0  0  0
    3.6750   18.5210   19.2460 H   0  0  0  0  0  0  0  0  0  0  0  0
    1.1410   15.8540   17.1550 H   0  0  0  0  0  0  0  0  0  0  0  0
    1.1640   15.6830   14.8600 H   0  0  0  0  0  0  0  0  0  0  0  0
    1.1020   17.2690   14.2300 H   0  0  0  0  0  0  0  0  0  0  0  0
    3.3460   15.3000   13.8630 H   0  0  0  0  0  0  0  0  0  0  0  0
    2.9780   20.2700   15.5100 H   0  0  0  0  0  0  0  0  0  0  0  0
    7.4230   22.5930   17.1110 H   0  0  0  0  0  0  0  0  0  0  0  0
    5.5660   22.6570   15.5060 H   0  0  0  0  0  0  0  0  0  0  0  0
    3.5910   14.0710   12.2430 H   0  0  0  0  0  0  0  0  0  0  0  0
    3.4070   18.3850   10.7880 H   0  0  0  0  0  0  0  0  0  0  0  0
    4.8740   12.3880   11.5610 H   0  0  0  0  0  0  0  0  0  0  0  0
    6.2090   14.3360    8.9060 H   0  0  0  0  0  0  0  0  0  0  0  0
    5.6670   16.7190    8.6590 H   0  0  0  0  0  0  0  0  0  0  0  0
  1  2  1  0  0  0  0
  1 23  2  0  0  0  0
  1 31  1  0  0  0  0
  2  3  2  0  0  0  0
  2 32  1  0  0  0  0
  3  4  1  0  0  0  0
  3 16  1  0  0  0  0
  4  5  1  0  0  0  0
  4  6  2  0  0  0  0
  5  8  2  0  0  0  0
  5 33  1  0  0  0  0
  6  7  1  0  0  0  0
  6 34  1  0  0  0  0
  7  9  1  0  0  0  0
  7 10  2  0  0  0  0
  8 10  1  0  0  0  0
  8 11  1  0  0  0  0
  9 12  1  0  0  0  0
  9 13  2  0  0  0  0
 10 35  1  0  0  0  0
 11 15  1  0  0  0  0
 11 36  1  0  0  0  0
 11 37  1  0  0  0  0
 12 18  2  0  0  0  0
 13 14  1  0  0  0  0
 14 18  1  0  0  0  0
 15 17  1  0  0  0  0
 15 38  1  0  0  0  0
 16 20  1  0  0  0  0
 16 24  2  0  0  0  0
 17 19  1  0  0  0  0
 17 21  2  0  0  0  0
 19 22  1  0  0  0  0
 19 25  2  0  0  0  0
 20 39  1  0  0  0  0
 22 27  1  0  0  0  0
 22 30  2  0  0  0  0
 23 24  1  0  0  0  0
 23 40  1  0  0  0  0
 24 41  1  0  0  0  0
 25 26  1  0  0  0  0
 25 42  1  0  0  0  0
 26 28  1  0  0  0  0
 26 29  2  0  0  0  0
 27 43  1  0  0  0  0
 28 44  1  0  0  0  0
 29 30  1  0  0  0  0
 29 45  1  0  0  0  0
 30 46  1  0  0  0  0
M  CHG  1  14  -1
M  END
> <rseq>
1

> <mseq>
226

> <S>
-6.367203

> <rmsd_refine>
1.647991

> <E_conf>
-86.33949

> <E_score1>
-11.56601

> <E_refine>
-40.90379

> <E_score2>
-6.367203

>  <$File>
outputs/pdb_4j58_cleaned.pdb_2024_06_17__22_47_40_V2_BS398_MIN1_/SDF/sdf_db.sdf

> <Rec_index>
1

>  <PLIF_raw>
[[28,18,14,14,18,18,4,6,7,10,8,5],[1056,1206,1206,1212,1206,1212,954,954,954,954,954,954],[70,81,81,81,81,81,62,62,62,62,62,62],[3,2,7,7,7,7,10,10,10,10,10,10],[2.8,5.9,1.499063917,0.9201059157,3.329704775,3.300270536,0.5,0.5,0.5,0.5,0.5,0.5]]

> <FP:PLIF>
21 3 4 17 18 24

>  <PLIF_ligidx>
[[4,6,7,10,8,5],28,28,18,18,[14,14,18,18]]

$$$$
226
  MOE2022           3D

 45 49  0  0  1  0  0  0  0  0999 V2000
    5.0670   14.5960    9.9180 C   0  0  0  0  0  0  0  0  0  0  0  0
    5.2640   15.8520    9.3570 C   0  0  0  0  0  0  0  0  0  0  0  0
    4.1840   14.4720   10.9840 C   0  0  0  0  0  0  0  0  0  0  0  0
    6.1050   15.9760    8.3070 F   0  0  0  0  0  0  0  0  0  0  0  0
    3.5160   15.5960   11.4950 C   0  0  0  0  0  0  0  0  0  0  0  0
    2.5790   15.4700   12.5910 C   0  0  0  0  0  0  0  0  0  0  0  0
    4.6150   16.9830    9.8360 C   0  0  0  0  0  0  0  0  0  0  0  0
    3.7480   16.8520   10.9120 C   0  0  0  0  0  0  0  0  0  0  0  0
    2.8300   15.9720   13.8580 N   0  0  0  0  0  0  0  0  0  0  0  0
    1.3180   14.9310   12.6280 C   0  0  0  0  0  0  0  0  0  0  0  0
    1.7360   15.7620   14.6540 C   0  0  0  0  0  0  0  0  0  0  0  0
    1.6490   16.1810   15.9990 N   0  0  0  0  0  0  0  0  0  0  0  0
    0.7860   15.1270   13.9030 C   0  0  0  0  0  0  0  0  0  0  0  0
    0.6710   17.2560   16.2010 C   0  0  0  0  0  0  0  0  0  0  0  0
    2.8700   16.5700   16.7260 C   0  0  0  0  0  0  0  0  0  0  0  0
    2.7440   18.0500   17.1480 C   0  0  2  0  0  0  0  0  0  0  0  0
    3.5830   18.3790   18.3900 C   0  0  0  0  0  0  0  0  0  0  0  0
    1.2120   18.1860   17.2870 C   0  0  2  0  0  0  0  0  0  0  0  0
    3.2120   18.9420   15.9950 C   0  0  0  0  0  0  0  0  0  0  0  0
    4.0540   18.4900   15.1850 O   0  5  0  0  0  0  0  0  0  0  0  0
    2.7690   20.1100   15.9330 O   0  0  0  0  0  0  0  0  0  0  0  0
    3.4800   17.6830   19.5480 O   0  0  0  0  0  0  0  0  0  0  0  0
    4.4590   19.2140   18.3840 O   0  0  0  0  0  0  0  0  0  0  0  0
    2.4230   16.9030   19.9220 C   0  0  0  0  0  0  0  0  0  0  0  0
    2.5290   15.9990   20.9010 O   0  0  0  0  0  0  0  0  0  0  0  0
    1.3150   15.4190   21.0760 N   0  0  0  0  0  0  0  0  0  0  0  0
    0.4890   15.9590   20.2320 C   0  0  0  0  0  0  0  0  0  0  0  0
   -0.9710   15.5900   20.1150 C   0  0  0  0  0  0  0  0  0  0  0  0
    1.1630   16.9180   19.4900 C   0  0  0  0  0  0  0  0  0  0  0  0
    0.6410   17.7850   18.5560 O   0  0  0  0  0  0  0  0  0  0  0  0
    5.5760   13.7490    9.5350 H   0  0  0  0  0  0  0  0  0  0  0  0
    4.0110   13.5200   11.4150 H   0  0  0  0  0  0  0  0  0  0  0  0
    4.7740   17.9280    9.3850 H   0  0  0  0  0  0  0  0  0  0  0  0
    3.2480   17.7050   11.2930 H   0  0  0  0  0  0  0  0  0  0  0  0
    3.6800   16.4800   14.1550 H   0  0  0  0  0  0  0  0  0  0  0  0
    0.8290   14.4660   11.8120 H   0  0  0  0  0  0  0  0  0  0  0  0
   -0.1760   14.8480   14.2420 H   0  0  0  0  0  0  0  0  0  0  0  0
    0.5510   17.8200   15.2850 H   0  0  0  0  0  0  0  0  0  0  0  0
   -0.3000   16.8580   16.4640 H   0  0  0  0  0  0  0  0  0  0  0  0
    2.9390   15.9370   17.5980 H   0  0  0  0  0  0  0  0  0  0  0  0
    3.7760   16.3570   16.1780 H   0  0  0  0  0  0  0  0  0  0  0  0
    0.8700   19.2070   17.1120 H   0  0  0  0  0  0  0  0  0  0  0  0
   -1.5270   15.9840   20.9650 H   0  0  0  0  0  0  0  0  0  0  0  0
   -1.3950   16.0040   19.1990 H   0  0  0  0  0  0  0  0  0  0  0  0
   -1.0910   14.5080   20.0820 H   0  0  0  0  0  0  0  0  0  0  0  0
  1  2  2  0  0  0  0
  1  3  1  0  0  0  0
  1 31  1  0  0  0  0
  2  4  1  0  0  0  0
  2  7  1  0  0  0  0
  3  5  2  0  0  0  0
  3 32  1  0  0  0  0
  5  6  1  0  0  0  0
  5  8  1  0  0  0  0
  6  9  1  0  0  0  0
  6 10  2  0  0  0  0
  7  8  2  0  0  0  0
  7 33  1  0  0  0  0
  8 34  1  0  0  0  0
  9 11  1  0  0  0  0
  9 35  1  0  0  0  0
 10 13  1  0  0  0  0
 10 36  1  0  0  0  0
 11 12  1  0  0  0  0
 11 13  2  0  0  0  0
 12 14  1  0  0  0  0
 12 15  1  0  0  0  0
 13 37  1  0  0  0  0
 14 18  1  0  0  0  0
 14 38  1  0  0  0  0
 14 39  1  0  0  0  0
 15 16  1  0  0  0  0
 15 40  1  0  0  0  0
 15 41  1  0  0  0  0
 16 17  1  0  0  0  0
 16 18  1  0  0  0  0
 16 19  1  0  0  0  0
 17 22  1  0  0  0  0
 17 23  2  0  0  0  0
 18 30  1  0  0  0  0
 18 42  1  0  0  0  0
 19 20  1  0  0  0  0
 19 21  2  0  0  0  0
 22 24  1  0  0  0  0
 24 25  1  0  0  0  0
 24 29  2  0  0  0  0
 25 26  1  0  0  0  0
 26 27  2  0  0  0  0
 27 28  1  0  0  0  0
 27 29  1  0  0  0  0
 28 43  1  0  0  0  0
 28 44  1  0  0  0  0
 28 45  1  0  0  0  0
 29 30  1  0  0  0  0
M  CHG  1  20  -1
M  END
> <rseq>
1

> <mseq>
227

> <S>
-6.53898

> <rmsd_refine>
0.9451596

> <E_conf>
-64.69492

> <E_score1>
-11.51544

> <E_refine>
-30.59299

> <E_score2>
-6.53898

>  <$File>
outputs/pdb_4j58_cleaned.pdb_2024_06_17__22_47_40_V2_BS398_MIN1_/SDF/sdf_db.sdf

> <Rec_index>
1

>  <PLIF_raw>
[[26,26,20,20],[1206,1212,823,826],[81,81,54,54],[2,2,7,7],[0.7,1.2,1.332062447,4.534345642]]

> <FP:PLIF>
1 16 17

>  <PLIF_ligidx>
[[20,20],20,[26,26]]

$$$$
227
  MOE2022           3D

 55 57  0  0  1  0  0  0  0  0999 V2000
    7.2470   20.9890   19.3890 C   0  0  0  0  0  0  0  0  0  0  0  0
    6.4280   19.8830   19.1900 C   0  0  0  0  0  0  0  0  0  0  0  0
    5.1050   20.0670   18.7920 C   0  0  0  0  0  0  0  0  0  0  0  0
    4.3360   18.9330   18.5620 O   0  0  0  0  0  0  0  0  0  0  0  0
    3.1420   18.8830   17.7060 C   0  0  1  0  0  0  0  0  0  0  0  0
    4.5920   21.3560   18.6160 C   0  0  0  0  0  0  0  0  0  0  0  0
    6.7450   22.2740   19.2020 C   0  0  0  0  0  0  0  0  0  0  0  0
    5.4190   22.4560   18.8190 C   0  0  0  0  0  0  0  0  0  0  0  0
    3.5010   19.0310   16.2220 C   0  0  0  0  0  0  0  0  0  0  0  0
    4.3900   19.8160   15.8900 O   0  0  0  0  0  0  0  0  0  0  0  0
    2.2970   17.6240   18.0030 C   0  0  2  0  0  0  0  0  0  0  0  0
    2.7970   18.3530   15.2800 N   0  0  0  0  0  0  0  0  0  0  0  0
    1.1220   17.5240   17.0060 C   0  0  2  0  0  0  0  0  0  0  0  0
    1.8210   17.2870   15.6390 C   0  0  1  0  0  0  0  0  0  0  0  0
    1.8590   17.6120   19.3470 O   0  0  0  0  0  0  0  0  0  0  0  0
    3.1600   18.4950   13.8550 C   0  0  0  0  0  0  0  0  0  0  0  0
    0.3270   18.7790   16.9610 N   0  0  0  0  0  0  0  0  0  0  0  0
    0.1920   16.3500   17.3940 C   0  0  0  0  0  0  0  0  0  0  0  0
   -0.9840   16.2630   16.6110 O   0  0  0  0  0  0  0  0  0  0  0  0
    0.8630   17.0640   14.5590 O   0  0  0  0  0  0  0  0  0  0  0  0
    0.8490   15.7250   13.9730 C   0  0  0  0  0  0  0  0  0  0  0  0
    2.1380   15.4050   13.2450 C   0  0  0  0  0  0  0  0  0  0  0  0
    3.0670   14.8410   13.7930 O   0  0  0  0  0  0  0  0  0  0  0  0
    2.2410   15.8780   11.9560 N   0  0  0  0  0  0  0  0  0  0  0  0
    3.3790   15.8080   11.1090 C   0  0  0  0  0  0  0  0  0  0  0  0
    3.5940   16.8820   10.2440 C   0  0  0  0  0  0  0  0  0  0  0  0
    4.6950   16.8670    9.3950 C   0  0  0  0  0  0  0  0  0  0  0  0
    5.5780   15.7900    9.4110 C   0  0  0  0  0  0  0  0  0  0  0  0
    4.2490   14.7130   11.1130 C   0  0  0  0  0  0  0  0  0  0  0  0
    5.3550   14.7150   10.2690 C   0  0  0  0  0  0  0  0  0  0  0  0
    8.2580   20.8550   19.6750 H   0  0  0  0  0  0  0  0  0  0  0  0
    6.8150   18.9090   19.3250 H   0  0  0  0  0  0  0  0  0  0  0  0
    2.5260   19.7280   17.9730 H   0  0  0  0  0  0  0  0  0  0  0  0
    3.5860   21.5100   18.3250 H   0  0  0  0  0  0  0  0  0  0  0  0
    7.3730   23.1130   19.3490 H   0  0  0  0  0  0  0  0  0  0  0  0
    5.0400   23.4350   18.6770 H   0  0  0  0  0  0  0  0  0  0  0  0
    2.9410   16.7530   17.8690 H   0  0  0  0  0  0  0  0  0  0  0  0
    2.3840   16.3680   15.7360 H   0  0  0  0  0  0  0  0  0  0  0  0
    1.4570   18.4650   19.5400 H   0  0  0  0  0  0  0  0  0  0  0  0
    3.7110   19.4010   13.6460 H   0  0  0  0  0  0  0  0  0  0  0  0
    3.7730   17.6680   13.5280 H   0  0  0  0  0  0  0  0  0  0  0  0
    2.2870   18.5320   13.2180 H   0  0  0  0  0  0  0  0  0  0  0  0
    0.9230   19.5480   16.6870 H   0  0  0  0  0  0  0  0  0  0  0  0
   -0.3990   18.6760   16.2660 H   0  0  0  0  0  0  0  0  0  0  0  0
    0.7410   15.4230   17.3040 H   0  0  0  0  0  0  0  0  0  0  0  0
   -0.1210   16.4580   18.4320 H   0  0  0  0  0  0  0  0  0  0  0  0
   -1.5180   17.0430   16.7830 H   0  0  0  0  0  0  0  0  0  0  0  0
    0.6680   15.0040   14.7600 H   0  0  0  0  0  0  0  0  0  0  0  0
    0.0090   15.6740   13.2950 H   0  0  0  0  0  0  0  0  0  0  0  0
    1.4360   16.4200   11.6040 H   0  0  0  0  0  0  0  0  0  0  0  0
    2.9250   17.7040   10.2340 H   0  0  0  0  0  0  0  0  0  0  0  0
    4.8610   17.6760    8.7320 H   0  0  0  0  0  0  0  0  0  0  0  0
    6.4160   15.7850    8.7630 H   0  0  0  0  0  0  0  0  0  0  0  0
    4.0730   13.8830   11.7440 H   0  0  0  0  0  0  0  0  0  0  0  0
    6.0240   13.8940   10.2740 H   0  0  0  0  0  0  0  0  0  0  0  0
  1  2  1  0  0  0  0
  1  7  2  0  0  0  0
  1 31  1  0  0  0  0
  2  3  2  0  0  0  0
  2 32  1  0  0  0  0
  3  4  1  0  0  0  0
  3  6  1  0  0  0  0
  4  5  1  0  0  0  0
  5  9  1  0  0  0  0
  5 11  1  0  0  0  0
  5 33  1  0  0  0  0
  6  8  2  0  0  0  0
  6 34  1  0  0  0  0
  7  8  1  0  0  0  0
  7 35  1  0  0  0  0
  8 36  1  0  0  0  0
  9 10  2  0  0  0  0
  9 12  1  0  0  0  0
 11 13  1  0  0  0  0
 11 15  1  0  0  0  0
 11 37  1  0  0  0  0
 12 14  1  0  0  0  0
 12 16  1  0  0  0  0
 13 14  1  0  0  0  0
 13 17  1  0  0  0  0
 13 18  1  0  0  0  0
 14 20  1  0  0  0  0
 14 38  1  0  0  0  0
 15 39  1  0  0  0  0
 16 40  1  0  0  0  0
 16 41  1  0  0  0  0
 16 42  1  0  0  0  0
 17 43  1  0  0  0  0
 17 44  1  0  0  0  0
 18 19  1  0  0  0  0
 18 45  1  0  0  0  0
 18 46  1  0  0  0  0
 19 47  1  0  0  0  0
 20 21  1  0  0  0  0
 21 22  1  0  0  0  0
 21 48  1  0  0  0  0
 21 49  1  0  0  0  0
 22 23  2  0  0  0  0
 22 24  1  0  0  0  0
 24 25  1  0  0  0  0
 24 50  1  0  0  0  0
 25 26  1  0  0  0  0
 25 29  2  0  0  0  0
 26 27  2  0  0  0  0
 26 51  1  0  0  0  0
 27 28  1  0  0  0  0
 27 52  1  0  0  0  0
 28 30  2  0  0  0  0
 28 53  1  0  0  0  0
 29 30  1  0  0  0  0
 29 54  1  0  0  0  0
 30 55  1  0  0  0  0
M  END
> <rseq>
1

> <mseq>
228

> <S>
-6.285313

> <rmsd_refine>
1.188041

> <E_conf>
90.1218

> <E_score1>
-10.8441

> <E_refine>
-35.84885

> <E_score2>
-6.285313

>  <$File>
outputs/pdb_4j58_cleaned.pdb_2024_06_17__22_47_40_V2_BS398_MIN1_/SDF/sdf_db.sdf

> <Rec_index>
1

>  <PLIF_raw>
[[25,29,30,28,27,26],[823,823,823,823,823,823],[54,54,54,54,54,54],[10,10,10,10,10,10],[0.6,0.6,0.6,0.6,0.6,0.6]]

> <FP:PLIF>
2

>  <PLIF_ligidx>
[[25,29,30,28,27,26]]

$$$$
228
  MOE2022           3D

 46 49  0  0  0  0  0  0  0  0999 V2000
    7.1660   20.8770   19.0800 C   0  0  0  0  0  0  0  0  0  0  0  0
    6.2360   19.8820   18.7980 C   0  0  0  0  0  0  0  0  0  0  0  0
    5.0300   20.1810   18.1490 C   0  0  0  0  0  0  0  0  0  0  0  0
    4.0640   19.1210   17.8380 C   0  0  0  0  0  0  0  0  0  0  0  0
    3.5490   18.9560   16.5460 C   0  0  0  0  0  0  0  0  0  0  0  0
    3.6090   18.2730   18.8490 C   0  0  0  0  0  0  0  0  0  0  0  0
    2.6060   17.3210   18.6270 C   0  0  0  0  0  0  0  0  0  0  0  0
    2.5640   18.0050   16.2910 C   0  0  0  0  0  0  0  0  0  0  0  0
    2.0710   16.5310   19.7330 C   0  0  0  0  0  0  0  0  0  0  0  0
    2.1030   17.1920   17.3230 C   0  0  0  0  0  0  0  0  0  0  0  0
    1.9550   17.8930   14.9080 C   0  0  0  0  0  0  0  0  0  0  0  0
    0.8820   15.9720   19.7290 N   0  0  0  0  0  0  0  0  0  0  0  0
    2.7080   16.3270   20.8660 N   0  0  0  0  0  0  0  0  0  0  0  0
    1.8820   15.6150   21.6020 N   0  5  0  0  0  0  0  0  0  0  0  0
    2.7480   17.1020   13.9630 N   0  0  0  0  0  0  0  0  0  0  0  0
    4.7810   21.5290   17.8370 C   0  0  0  0  0  0  0  0  0  0  0  0
    2.8560   17.4100   12.6240 C   0  0  0  0  0  0  0  0  0  0  0  0
    0.7700   15.4030   20.9090 N   0  0  0  0  0  0  0  0  0  0  0  0
    3.4470   16.4210   11.7190 C   0  0  0  0  0  0  0  0  0  0  0  0
    3.5950   21.9010   17.2740 O   0  0  0  0  0  0  0  0  0  0  0  0
    2.4670   18.5150   12.2470 O   0  0  0  0  0  0  0  0  0  0  0  0
    4.2110   16.8050   10.6000 C   0  0  0  0  0  0  0  0  0  0  0  0
    4.3750   18.1280   10.2850 O   0  0  0  0  0  0  0  0  0  0  0  0
    4.8320   15.8450    9.7960 C   0  0  0  0  0  0  0  0  0  0  0  0
    5.6220   16.2270    8.7440 O   0  0  0  0  0  0  0  0  0  0  0  0
    4.6610   14.4910   10.0510 C   0  0  0  0  0  0  0  0  0  0  0  0
    6.9080   22.2000   18.7320 C   0  0  0  0  0  0  0  0  0  0  0  0
    3.8700   14.0960   11.1270 C   0  0  0  0  0  0  0  0  0  0  0  0
    5.7100   22.5300   18.1100 C   0  0  0  0  0  0  0  0  0  0  0  0
    3.2770   15.0450   11.9560 C   0  0  0  0  0  0  0  0  0  0  0  0
    8.0770   20.6280   19.5610 H   0  0  0  0  0  0  0  0  0  0  0  0
    6.4480   18.8870   19.0800 H   0  0  0  0  0  0  0  0  0  0  0  0
    3.8990   19.5740   15.7590 H   0  0  0  0  0  0  0  0  0  0  0  0
    4.0120   18.3770   19.8210 H   0  0  0  0  0  0  0  0  0  0  0  0
    1.3480   16.4740   17.1280 H   0  0  0  0  0  0  0  0  0  0  0  0
    0.9670   17.4590   14.9830 H   0  0  0  0  0  0  0  0  0  0  0  0
    1.7870   18.8910   14.5280 H   0  0  0  0  0  0  0  0  0  0  0  0
    3.0430   16.1660   14.2790 H   0  0  0  0  0  0  0  0  0  0  0  0
    2.9900   21.1340   17.2280 H   0  0  0  0  0  0  0  0  0  0  0  0
    3.7900   18.6820   10.8440 H   0  0  0  0  0  0  0  0  0  0  0  0
    5.6460   17.2040    8.6880 H   0  0  0  0  0  0  0  0  0  0  0  0
    5.1240   13.7660    9.4320 H   0  0  0  0  0  0  0  0  0  0  0  0
    7.6230   22.9520   18.9420 H   0  0  0  0  0  0  0  0  0  0  0  0
    3.7210   13.0650   11.3140 H   0  0  0  0  0  0  0  0  0  0  0  0
    5.5020   23.5360   17.8510 H   0  0  0  0  0  0  0  0  0  0  0  0
    2.6880   14.7150   12.7720 H   0  0  0  0  0  0  0  0  0  0  0  0
  1  2  1  0  0  0  0
  1 27  2  0  0  0  0
  1 31  1  0  0  0  0
  2  3  2  0  0  0  0
  2 32  1  0  0  0  0
  3  4  1  0  0  0  0
  3 16  1  0  0  0  0
  4  5  1  0  0  0  0
  4  6  2  0  0  0  0
  5  8  2  0  0  0  0
  5 33  1  0  0  0  0
  6  7  1  0  0  0  0
  6 34  1  0  0  0  0
  7  9  1  0  0  0  0
  7 10  2  0  0  0  0
  8 10  1  0  0  0  0
  8 11  1  0  0  0  0
  9 12  1  0  0  0  0
  9 13  2  0  0  0  0
 10 35  1  0  0  0  0
 11 15  1  0  0  0  0
 11 36  1  0  0  0  0
 11 37  1  0  0  0  0
 12 18  2  0  0  0  0
 13 14  1  0  0  0  0
 14 18  1  0  0  0  0
 15 17  1  0  0  0  0
 15 38  1  0  0  0  0
 16 20  1  0  0  0  0
 16 29  2  0  0  0  0
 17 19  1  0  0  0  0
 17 21  2  0  0  0  0
 19 22  1  0  0  0  0
 19 30  2  0  0  0  0
 20 39  1  0  0  0  0
 22 23  1  0  0  0  0
 22 24  2  0  0  0  0
 23 40  1  0  0  0  0
 24 25  1  0  0  0  0
 24 26  1  0  0  0  0
 25 41  1  0  0  0  0
 26 28  2  0  0  0  0
 26 42  1  0  0  0  0
 27 29  1  0  0  0  0
 27 43  1  0  0  0  0
 28 30  1  0  0  0  0
 28 44  1  0  0  0  0
 29 45  1  0  0  0  0
 30 46  1  0  0  0  0
M  CHG  1  14  -1
M  END
> <rseq>
1

> <mseq>
229

> <S>
-6.469341

> <rmsd_refine>
0.8502527

> <E_conf>
-68.29591

> <E_score1>
-12.31553

> <E_refine>
-38.20318

> <E_score2>
-6.469341

>  <$File>
outputs/pdb_4j58_cleaned.pdb_2024_06_17__22_47_40_V2_BS398_MIN1_/SDF/sdf_db.sdf

> <Rec_index>
1

>  <PLIF_raw>
[[18,18,14,14,18,18,4,6,7,10,8,5],[1206,1212,1206,1212,1206,1212,954,954,954,954,954,954],[81,81,81,81,81,81,62,62,62,62,62,62],[2,2,7,7,7,7,10,10,10,10,10,10],[3.3,1,1.993566007,1.578211735,3.007975623,3.985666275,0.9,0.9,0.9,0.9,0.9,0.9]]

> <FP:PLIF>
21 17 18 24 25

>  <PLIF_ligidx>
[[4,6,7,10,8,5],[18,18],18,[14,14,18,18],18]

$$$$
229
  MOE2022           3D

 52 55  0  0  1  0  0  0  0  0999 V2000
    4.8620   14.0420   10.8180 C   0  0  0  0  0  0  0  0  0  0  0  0
    5.4200   14.6090    9.6820 C   0  0  0  0  0  0  0  0  0  0  0  0
    3.8080   14.6960   11.4430 C   0  0  0  0  0  0  0  0  0  0  0  0
    6.4300   13.9630    9.0710 F   0  0  0  0  0  0  0  0  0  0  0  0
    3.3140   15.9120   10.9360 C   0  0  0  0  0  0  0  0  0  0  0  0
    2.2180   16.5980   11.5970 C   0  0  0  0  0  0  0  0  0  0  0  0
    4.9650   15.8110    9.1560 C   0  0  0  0  0  0  0  0  0  0  0  0
    3.9070   16.4570    9.7850 C   0  0  0  0  0  0  0  0  0  0  0  0
    2.0440   16.5510   12.9680 N   0  0  0  0  0  0  0  0  0  0  0  0
    1.2170   17.4030   11.1140 C   0  0  0  0  0  0  0  0  0  0  0  0
    0.9810   17.3320   13.3330 C   0  0  0  0  0  0  0  0  0  0  0  0
    0.6160   17.5210   14.6970 N   0  0  0  0  0  0  0  0  0  0  0  0
    0.4430   17.8540   12.1860 C   0  0  0  0  0  0  0  0  0  0  0  0
    0.1000   18.8680   15.0240 C   0  0  0  0  0  0  0  0  0  0  0  0
    1.6550   17.2620   15.7110 C   0  0  0  0  0  0  0  0  0  0  0  0
    2.2490   18.6230   16.1180 C   0  0  2  0  0  0  0  0  0  0  0  0
    3.0730   18.6110   17.4300 C   0  0  1  0  0  0  0  0  0  0  0  0
    0.9510   19.4400   16.1640 C   0  0  0  0  0  0  0  0  0  0  0  0
    3.2030   19.0850   14.9960 C   0  0  0  0  0  0  0  0  0  0  0  0
    4.0250   18.2360   14.5860 O   0  5  0  0  0  0  0  0  0  0  0  0
    3.3190   19.9960   17.8290 O   0  0  0  0  0  0  0  0  0  0  0  0
    4.4790   20.5260   18.3610 C   0  0  0  0  0  0  0  0  0  0  0  0
    4.6780   21.9000   18.2430 C   0  0  0  0  0  0  0  0  0  0  0  0
    5.8400   22.4710   18.7550 C   0  0  0  0  0  0  0  0  0  0  0  0
    5.4250   19.7240   18.9990 C   0  0  0  0  0  0  0  0  0  0  0  0
    6.7930   21.6730   19.3860 C   0  0  0  0  0  0  0  0  0  0  0  0
    6.5830   20.3010   19.5090 C   0  0  0  0  0  0  0  0  0  0  0  0
    2.4980   17.8090   18.6130 C   0  0  0  0  0  0  0  0  0  0  0  0
    3.1520   20.2690   14.5930 O   0  0  0  0  0  0  0  0  0  0  0  0
    2.6690   16.4130   18.4600 O   0  0  0  0  0  0  0  0  0  0  0  0
    5.2330   13.1260   11.1970 H   0  0  0  0  0  0  0  0  0  0  0  0
    3.3720   14.2690   12.3090 H   0  0  0  0  0  0  0  0  0  0  0  0
    5.4150   16.2250    8.2900 H   0  0  0  0  0  0  0  0  0  0  0  0
    3.5480   17.3750    9.3950 H   0  0  0  0  0  0  0  0  0  0  0  0
    2.6570   16.0560   13.6340 H   0  0  0  0  0  0  0  0  0  0  0  0
    1.0660   17.6430   10.0940 H   0  0  0  0  0  0  0  0  0  0  0  0
   -0.3980   18.4950   12.1320 H   0  0  0  0  0  0  0  0  0  0  0  0
    0.1720   19.5270   14.1690 H   0  0  0  0  0  0  0  0  0  0  0  0
   -0.9440   18.8240   15.3010 H   0  0  0  0  0  0  0  0  0  0  0  0
    1.1500   16.8090   16.5510 H   0  0  0  0  0  0  0  0  0  0  0  0
    2.4070   16.5470   15.4100 H   0  0  0  0  0  0  0  0  0  0  0  0
    4.0490   18.1860   17.1960 H   0  0  0  0  0  0  0  0  0  0  0  0
    1.1190   20.5110   16.0510 H   0  0  0  0  0  0  0  0  0  0  0  0
    0.4330   19.2580   17.1050 H   0  0  0  0  0  0  0  0  0  0  0  0
    3.9520   22.5000   17.7590 H   0  0  0  0  0  0  0  0  0  0  0  0
    6.0020   23.5130   18.6600 H   0  0  0  0  0  0  0  0  0  0  0  0
    5.2620   18.6870   19.0970 H   0  0  0  0  0  0  0  0  0  0  0  0
    7.6800   22.1080   19.7700 H   0  0  0  0  0  0  0  0  0  0  0  0
    7.3100   19.6970   19.9880 H   0  0  0  0  0  0  0  0  0  0  0  0
    3.0460   18.0850   19.5110 H   0  0  0  0  0  0  0  0  0  0  0  0
    1.4450   18.0480   18.7590 H   0  0  0  0  0  0  0  0  0  0  0  0
    2.0980   16.0980   17.7540 H   0  0  0  0  0  0  0  0  0  0  0  0
  1  2  2  0  0  0  0
  1  3  1  0  0  0  0
  1 31  1  0  0  0  0
  2  4  1  0  0  0  0
  2  7  1  0  0  0  0
  3  5  2  0  0  0  0
  3 32  1  0  0  0  0
  5  6  1  0  0  0  0
  5  8  1  0  0  0  0
  6  9  1  0  0  0  0
  6 10  2  0  0  0  0
  7  8  2  0  0  0  0
  7 33  1  0  0  0  0
  8 34  1  0  0  0  0
  9 11  1  0  0  0  0
  9 35  1  0  0  0  0
 10 13  1  0  0  0  0
 10 36  1  0  0  0  0
 11 12  1  0  0  0  0
 11 13  2  0  0  0  0
 12 14  1  0  0  0  0
 12 15  1  0  0  0  0
 13 37  1  0  0  0  0
 14 18  1  0  0  0  0
 14 38  1  0  0  0  0
 14 39  1  0  0  0  0
 15 16  1  0  0  0  0
 15 40  1  0  0  0  0
 15 41  1  0  0  0  0
 16 17  1  0  0  0  0
 16 18  1  0  0  0  0
 16 19  1  0  0  0  0
 17 21  1  0  0  0  0
 17 28  1  0  0  0  0
 17 42  1  0  0  0  0
 18 43  1  0  0  0  0
 18 44  1  0  0  0  0
 19 20  1  0  0  0  0
 19 29  2  0  0  0  0
 21 22  1  0  0  0  0
 22 23  1  0  0  0  0
 22 25  2  0  0  0  0
 23 24  2  0  0  0  0
 23 45  1  0  0  0  0
 24 26  1  0  0  0  0
 24 46  1  0  0  0  0
 25 27  1  0  0  0  0
 25 47  1  0  0  0  0
 26 27  2  0  0  0  0
 26 48  1  0  0  0  0
 27 49  1  0  0  0  0
 28 30  1  0  0  0  0
 28 50  1  0  0  0  0
 28 51  1  0  0  0  0
 30 52  1  0  0  0  0
M  CHG  1  20  -1
M  END
> <rseq>
1

> <mseq>
230

> <S>
-5.543321

> <rmsd_refine>
1.400095

> <E_conf>
-45.08176

> <E_score1>
-10.76828

> <E_refine>
-25.9066

> <E_score2>
-5.543321

>  <$File>
outputs/pdb_4j58_cleaned.pdb_2024_06_17__22_47_40_V2_BS398_MIN1_/SDF/sdf_db.sdf

> <Rec_index>
1

>  <PLIF_raw>
[[20,20,20,29,1,2,7,8,5,3,22,25,27,26,24,23],[823,826,829,826,823,823,823,823,823,823,1499,1499,1499,1499,1499,1499],[54,54,54,54,54,54,54,54,54,54,101,101,101,101,101,101],[7,7,7,7,10,10,10,10,10,10,10,10,10,10,10,10],[3.142321541,4.933934564,0.7500848565,0.5660767735,0.9,0.9,0.9,0.9,0.9,0.9,0.6,0.6,0.6,0.6,0.6,0.6]]

> <FP:PLIF>
1 16 2 44

>  <PLIF_ligidx>
[[20,20,20,29],20,[1,2,7,8,5,3],[22,25,27,26,24,23]]

$$$$
230
  MOE2022           3D

 46 49  0  0  0  0  0  0  0  0999 V2000
    7.1660   20.8710   19.0530 C   0  0  0  0  0  0  0  0  0  0  0  0
    6.2290   19.8810   18.7760 C   0  0  0  0  0  0  0  0  0  0  0  0
    5.0350   20.1790   18.1050 C   0  0  0  0  0  0  0  0  0  0  0  0
    4.0630   19.1230   17.8020 C   0  0  0  0  0  0  0  0  0  0  0  0
    3.5460   18.9500   16.5110 C   0  0  0  0  0  0  0  0  0  0  0  0
    3.6060   18.2820   18.8190 C   0  0  0  0  0  0  0  0  0  0  0  0
    2.6010   17.3300   18.6030 C   0  0  0  0  0  0  0  0  0  0  0  0
    2.5560   18.0030   16.2640 C   0  0  0  0  0  0  0  0  0  0  0  0
    2.0720   16.5400   19.7130 C   0  0  0  0  0  0  0  0  0  0  0  0
    2.0960   17.1960   17.3010 C   0  0  0  0  0  0  0  0  0  0  0  0
    1.9420   17.8870   14.8830 C   0  0  0  0  0  0  0  0  0  0  0  0
    0.8870   15.9710   19.7100 N   0  0  0  0  0  0  0  0  0  0  0  0
    2.7100   16.3440   20.8460 N   0  0  0  0  0  0  0  0  0  0  0  0
    1.8900   15.6270   21.5840 N   0  5  0  0  0  0  0  0  0  0  0  0
    2.6950   17.0420   13.9520 N   0  0  0  0  0  0  0  0  0  0  0  0
    4.8050   21.5250   17.7640 C   0  0  0  0  0  0  0  0  0  0  0  0
    3.0910   17.4530   12.6970 C   0  0  0  0  0  0  0  0  0  0  0  0
    0.7790   15.4040   20.8920 N   0  0  0  0  0  0  0  0  0  0  0  0
    3.5640   16.4590   11.7270 C   0  0  0  0  0  0  0  0  0  0  0  0
    3.6320   21.8990   17.1770 O   0  0  0  0  0  0  0  0  0  0  0  0
    3.0540   18.6550   12.4420 O   0  0  0  0  0  0  0  0  0  0  0  0
    4.2080   16.8880   10.5530 C   0  0  0  0  0  0  0  0  0  0  0  0
    6.9270   22.1900   18.6760 C   0  0  0  0  0  0  0  0  0  0  0  0
    5.7410   22.5210   18.0320 C   0  0  0  0  0  0  0  0  0  0  0  0
    4.7140   15.9590    9.6510 C   0  0  0  0  0  0  0  0  0  0  0  0
    3.4090   15.0760   11.9460 C   0  0  0  0  0  0  0  0  0  0  0  0
    5.3570   16.4190    8.5290 O   0  0  0  0  0  0  0  0  0  0  0  0
    4.5700   14.5900    9.8930 C   0  0  0  0  0  0  0  0  0  0  0  0
    5.0690   13.6580    9.0240 O   0  0  0  0  0  0  0  0  0  0  0  0
    3.9090   14.1490   11.0360 C   0  0  0  0  0  0  0  0  0  0  0  0
    8.0680   20.6210   19.5500 H   0  0  0  0  0  0  0  0  0  0  0  0
    6.4280   18.8880   19.0790 H   0  0  0  0  0  0  0  0  0  0  0  0
    3.8980   19.5610   15.7190 H   0  0  0  0  0  0  0  0  0  0  0  0
    4.0100   18.3910   19.7900 H   0  0  0  0  0  0  0  0  0  0  0  0
    1.3380   16.4790   17.1100 H   0  0  0  0  0  0  0  0  0  0  0  0
    0.9380   17.4940   14.9710 H   0  0  0  0  0  0  0  0  0  0  0  0
    1.8040   18.8810   14.4810 H   0  0  0  0  0  0  0  0  0  0  0  0
    2.7470   16.0390   14.1820 H   0  0  0  0  0  0  0  0  0  0  0  0
    3.0220   21.1360   17.1280 H   0  0  0  0  0  0  0  0  0  0  0  0
    4.3220   17.9230   10.3530 H   0  0  0  0  0  0  0  0  0  0  0  0
    7.6470   22.9390   18.8830 H   0  0  0  0  0  0  0  0  0  0  0  0
    5.5480   23.5240   17.7510 H   0  0  0  0  0  0  0  0  0  0  0  0
    2.9110   14.7220   12.8110 H   0  0  0  0  0  0  0  0  0  0  0  0
    5.6440   15.6910    7.9480 H   0  0  0  0  0  0  0  0  0  0  0  0
    5.4740   14.0760    8.2420 H   0  0  0  0  0  0  0  0  0  0  0  0
    3.7890   13.1110   11.2110 H   0  0  0  0  0  0  0  0  0  0  0  0
  1  2  1  0  0  0  0
  1 23  2  0  0  0  0
  1 31  1  0  0  0  0
  2  3  2  0  0  0  0
  2 32  1  0  0  0  0
  3  4  1  0  0  0  0
  3 16  1  0  0  0  0
  4  5  1  0  0  0  0
  4  6  2  0  0  0  0
  5  8  2  0  0  0  0
  5 33  1  0  0  0  0
  6  7  1  0  0  0  0
  6 34  1  0  0  0  0
  7  9  1  0  0  0  0
  7 10  2  0  0  0  0
  8 10  1  0  0  0  0
  8 11  1  0  0  0  0
  9 12  1  0  0  0  0
  9 13  2  0  0  0  0
 10 35  1  0  0  0  0
 11 15  1  0  0  0  0
 11 36  1  0  0  0  0
 11 37  1  0  0  0  0
 12 18  2  0  0  0  0
 13 14  1  0  0  0  0
 14 18  1  0  0  0  0
 15 17  1  0  0  0  0
 15 38  1  0  0  0  0
 16 20  1  0  0  0  0
 16 24  2  0  0  0  0
 17 19  1  0  0  0  0
 17 21  2  0  0  0  0
 19 22  2  0  0  0  0
 19 26  1  0  0  0  0
 20 39  1  0  0  0  0
 22 25  1  0  0  0  0
 22 40  1  0  0  0  0
 23 24  1  0  0  0  0
 23 41  1  0  0  0  0
 24 42  1  0  0  0  0
 25 27  1  0  0  0  0
 25 28  2  0  0  0  0
 26 30  2  0  0  0  0
 26 43  1  0  0  0  0
 27 44  1  0  0  0  0
 28 29  1  0  0  0  0
 28 30  1  0  0  0  0
 29 45  1  0  0  0  0
 30 46  1  0  0  0  0
M  CHG  1  14  -1
M  END
> <rseq>
1

> <mseq>
231

> <S>
-6.422629

> <rmsd_refine>
0.7996303

> <E_conf>
-71.31831

> <E_score1>
-11.56495

> <E_refine>
-37.1764

> <E_score2>
-6.422629

>  <$File>
outputs/pdb_4j58_cleaned.pdb_2024_06_17__22_47_40_V2_BS398_MIN1_/SDF/sdf_db.sdf

> <Rec_index>
1

>  <PLIF_raw>
[[18,18,14,14,18,18,4,6,7,10,8,5],[1206,1212,1206,1212,1206,1212,954,954,954,954,954,954],[81,81,81,81,81,81,62,62,62,62,62,62],[2,2,7,7,7,7,10,10,10,10,10,10],[3.2,1.1,1.911215508,1.525172854,2.917538394,3.933705624,0.9,0.9,0.9,0.9,0.9,0.9]]

> <FP:PLIF>
21 17 18 24 25

>  <PLIF_ligidx>
[[4,6,7,10,8,5],[18,18],18,[14,14,18,18],18]

$$$$
231
  MOE2022           3D

 48 50  0  0  1  0  0  0  0  0999 V2000
    2.3430   16.6200   20.4410 C   0  0  0  0  0  0  0  0  0  0  0  0
    2.8220   17.1190   19.2330 C   0  0  0  0  0  0  0  0  0  0  0  0
    1.0470   16.1290   20.5340 C   0  0  0  0  0  0  0  0  0  0  0  0
    0.2460   16.1280   19.3960 C   0  0  0  0  0  0  0  0  0  0  0  0
   -1.0320   15.6540   19.4690 O   0  0  0  0  0  0  0  0  0  0  0  0
    2.0290   17.0940   18.0770 C   0  0  0  0  0  0  0  0  0  0  0  0
    0.7210   16.6000   18.1780 C   0  0  0  0  0  0  0  0  0  0  0  0
    2.5470   17.5090   16.7710 C   0  0  0  0  0  0  0  0  0  0  0  0
    3.1460   18.7660   16.5210 C   0  0  0  0  0  0  0  0  0  0  0  0
    3.5760   19.1200   15.2340 C   0  0  0  0  0  0  0  0  0  0  0  0
    3.2590   19.7310   17.5600 N   0  0  0  0  0  0  0  0  0  0  0  0
    4.2800   20.6500   17.6910 C   0  0  0  0  0  0  0  0  0  0  0  0
    5.3400   20.4940   17.1090 O   0  0  0  0  0  0  0  0  0  0  0  0
    2.4290   16.6170   15.6980 C   0  0  0  0  0  0  0  0  0  0  0  0
    2.8680   16.9770   14.4250 C   0  0  0  0  0  0  0  0  0  0  0  0
    2.7440   16.0550   13.3490 N   0  0  0  0  0  0  0  0  0  0  0  0
    3.4380   18.2260   14.1850 C   0  0  0  0  0  0  0  0  0  0  0  0
    2.3730   16.3660   11.9950 C   0  0  0  0  0  0  0  0  0  0  0  0
    2.8830   14.6510   13.4770 N   0  0  0  0  0  0  0  0  0  0  0  0
    1.8840   17.4300   11.6300 O   0  0  0  0  0  0  0  0  0  0  0  0
    2.7890   15.2090   11.2420 C   0  0  0  0  0  0  0  0  0  0  0  0
    3.9920   21.8420   18.5810 C   0  0  0  0  0  0  0  0  0  0  0  0
    2.9610   14.3840   12.2180 C   0  0  0  0  0  0  0  0  0  0  0  0
    3.4880   15.4980    9.9280 C   0  0  0  0  0  0  0  0  0  0  0  0
    4.8490   23.0890   18.2900 C   0  0  2  0  0  0  0  0  0  0  0  0
    6.1060   22.9660   18.9230 O   0  0  0  0  0  0  0  0  0  0  0  0
    4.8050   16.2170   10.1140 C   0  0  0  0  0  0  0  0  0  0  0  0
    5.8480   15.5310   10.1820 O   0  5  0  0  0  0  0  0  0  0  0  0
    4.7690   17.4560   10.2660 O   0  0  0  0  0  0  0  0  0  0  0  0
    4.1830   24.3840   18.7620 C   0  0  0  0  0  0  0  0  0  0  0  0
    2.9690   16.6140   21.2940 H   0  0  0  0  0  0  0  0  0  0  0  0
    3.8030   17.5130   19.1900 H   0  0  0  0  0  0  0  0  0  0  0  0
    0.6780   15.7640   21.4560 H   0  0  0  0  0  0  0  0  0  0  0  0
   -1.2860   15.4490   20.3880 H   0  0  0  0  0  0  0  0  0  0  0  0
    0.0930   16.5780   17.3240 H   0  0  0  0  0  0  0  0  0  0  0  0
    3.9920   20.0750   15.0470 H   0  0  0  0  0  0  0  0  0  0  0  0
    2.4850   19.7880   18.2420 H   0  0  0  0  0  0  0  0  0  0  0  0
    1.9940   15.6630   15.8500 H   0  0  0  0  0  0  0  0  0  0  0  0
    3.7620   18.4930   13.2110 H   0  0  0  0  0  0  0  0  0  0  0  0
    2.9460   22.0970   18.4760 H   0  0  0  0  0  0  0  0  0  0  0  0
    4.1120   21.5550   19.6130 H   0  0  0  0  0  0  0  0  0  0  0  0
    3.6510   14.5640    9.4090 H   0  0  0  0  0  0  0  0  0  0  0  0
    2.8320   16.0930    9.3070 H   0  0  0  0  0  0  0  0  0  0  0  0
    4.9990   23.1570   17.2110 H   0  0  0  0  0  0  0  0  0  0  0  0
    6.7320   23.5420   18.4770 H   0  0  0  0  0  0  0  0  0  0  0  0
    3.2920   24.5720   18.1620 H   0  0  0  0  0  0  0  0  0  0  0  0
    3.8880   24.2980   19.8070 H   0  0  0  0  0  0  0  0  0  0  0  0
    4.8690   25.2230   18.6400 H   0  0  0  0  0  0  0  0  0  0  0  0
  1  2  2  0  0  0  0
  1  3  1  0  0  0  0
  1 31  1  0  0  0  0
  2  6  1  0  0  0  0
  2 32  1  0  0  0  0
  3  4  2  0  0  0  0
  3 33  1  0  0  0  0
  4  5  1  0  0  0  0
  4  7  1  0  0  0  0
  5 34  1  0  0  0  0
  6  7  2  0  0  0  0
  6  8  1  0  0  0  0
  7 35  1  0  0  0  0
  8  9  1  0  0  0  0
  8 14  2  0  0  0  0
  9 10  2  0  0  0  0
  9 11  1  0  0  0  0
 10 17  1  0  0  0  0
 10 36  1  0  0  0  0
 11 12  1  0  0  0  0
 11 37  1  0  0  0  0
 12 13  2  0  0  0  0
 12 22  1  0  0  0  0
 14 15  1  0  0  0  0
 14 38  1  0  0  0  0
 15 16  1  0  0  0  0
 15 17  2  0  0  0  0
 16 18  1  0  0  0  0
 16 19  1  0  0  0  0
 17 39  1  0  0  0  0
 18 20  2  0  0  0  0
 18 21  1  0  0  0  0
 19 23  2  0  0  0  0
 21 23  2  0  0  0  0
 21 24  1  0  0  0  0
 22 25  1  0  0  0  0
 22 40  1  0  0  0  0
 22 41  1  0  0  0  0
 24 27  1  0  0  0  0
 24 42  1  0  0  0  0
 24 43  1  0  0  0  0
 25 26  1  0  0  0  0
 25 30  1  0  0  0  0
 25 44  1  0  0  0  0
 26 45  1  0  0  0  0
 27 28  1  0  0  0  0
 27 29  2  0  0  0  0
 30 46  1  0  0  0  0
 30 47  1  0  0  0  0
 30 48  1  0  0  0  0
M  CHG  1  28  -1
M  END
> <rseq>
1

> <mseq>
232

> <S>
-6.219793

> <rmsd_refine>
1.034803

> <E_conf>
-12.52582

> <E_score1>
-11.11505

> <E_refine>
-33.23975

> <E_score2>
-6.219793

>  <$File>
outputs/pdb_4j58_cleaned.pdb_2024_06_17__22_47_40_V2_BS398_MIN1_/SDF/sdf_db.sdf

> <Rec_index>
1

>  <PLIF_raw>
[[11,28,29,28,29,29,8,9,10,17,15,14],[1504,823,823,823,823,829,954,954,954,954,954,954],[101,54,54,54,54,54,62,62,62,62,62,62],[3,2,2,7,7,7,10,10,10,10,10,10],[1.1,2.6,1.9,3.764119006,4.448556713,2.877087431,0.7,0.7,0.7,0.7,0.7,0.7]]

> <FP:PLIF>
6 19 1 16 21 8

>  <PLIF_ligidx>
[[28,29],[28,29],[28,29,29],[28,29],[8,9,10,17,15,14],11]

$$$$
232
  MOE2022           3D

 50 51  0  0  0  0  0  0  0  0999 V2000
    4.4070   13.9400   10.4390 C   0  0  0  0  0  0  0  0  0  0  0  0
    3.6820   14.6910   11.3560 C   0  0  0  0  0  0  0  0  0  0  0  0
    3.6330   16.0880   11.2230 C   0  0  0  0  0  0  0  0  0  0  0  0
    4.4420   12.5780   10.5600 O   0  0  0  0  0  0  0  0  0  0  0  0
    4.3050   16.7020   10.1530 C   0  0  0  0  0  0  0  0  0  0  0  0
    2.9400   16.9100   12.2020 C   0  0  0  0  0  0  0  0  0  0  0  0
    3.3020   16.7250   13.5140 N   0  0  0  0  0  0  0  0  0  0  0  0
    2.0980   17.7540   11.9110 O   0  0  0  0  0  0  0  0  0  0  0  0
    5.0950   14.5640    9.3960 C   0  0  0  0  0  0  0  0  0  0  0  0
    3.2530   17.6840   14.5940 C   0  0  0  0  0  0  0  0  0  0  0  0
    3.1080   17.2070   15.8640 C   0  0  0  0  0  0  0  0  0  0  0  0
    3.4600   19.0890   14.3510 C   0  0  0  0  0  0  0  0  0  0  0  0
    3.0620   15.8770   16.1450 O   0  0  0  0  0  0  0  0  0  0  0  0
    3.7010   19.5930   13.2500 O   0  0  0  0  0  0  0  0  0  0  0  0
    3.4500   19.9420   15.4650 N   0  0  0  0  0  0  0  0  0  0  0  0
    5.8230   13.8200    8.5140 O   0  0  0  0  0  0  0  0  0  0  0  0
    3.0260   18.0770   16.9610 N   0  0  0  0  0  0  0  0  0  0  0  0
    3.8580   21.3660   15.2940 C   0  0  0  0  0  0  0  0  0  0  0  0
    5.0420   15.9470    9.2460 C   0  0  0  0  0  0  0  0  0  0  0  0
    3.1780   19.4630   16.7640 C   0  0  0  0  0  0  0  0  0  0  0  0
    5.3610   21.5640   15.2610 C   0  0  0  0  0  0  0  0  0  0  0  0
    3.0790   20.2460   17.7110 O   0  0  0  0  0  0  0  0  0  0  0  0
    2.7650   17.5890   18.3400 C   0  0  0  0  0  0  0  0  0  0  0  0
    5.9810   21.5050   16.3450 O   0  0  0  0  0  0  0  0  0  0  0  0
    1.2770   17.4800   18.7130 C   0  0  0  0  0  0  0  0  0  0  0  0
    5.9150   21.7020   14.1470 O   0  5  0  0  0  0  0  0  0  0  0  0
    0.6280   16.1690   18.2570 C   0  0  0  0  0  0  0  0  0  0  0  0
   -0.8340   16.0520   18.7080 C   0  0  0  0  0  0  0  0  0  0  0  0
   -1.4270   14.6820   18.3700 C   0  0  0  0  0  0  0  0  0  0  0  0
   -0.8190   13.6920   19.1710 O   0  0  0  0  0  0  0  0  0  0  0  0
    3.1710   14.2090   12.1490 H   0  0  0  0  0  0  0  0  0  0  0  0
    5.0170   12.2040    9.8630 H   0  0  0  0  0  0  0  0  0  0  0  0
    4.2630   17.7560   10.0450 H   0  0  0  0  0  0  0  0  0  0  0  0
    3.7600   15.8250   13.7260 H   0  0  0  0  0  0  0  0  0  0  0  0
    2.8430   15.7190   17.0850 H   0  0  0  0  0  0  0  0  0  0  0  0
    6.2230   14.3980    7.8350 H   0  0  0  0  0  0  0  0  0  0  0  0
    3.4230   21.7630   14.3870 H   0  0  0  0  0  0  0  0  0  0  0  0
    3.4460   21.9680   16.0910 H   0  0  0  0  0  0  0  0  0  0  0  0
    5.5570   16.4220    8.4510 H   0  0  0  0  0  0  0  0  0  0  0  0
    3.2540   18.2420   19.0500 H   0  0  0  0  0  0  0  0  0  0  0  0
    3.2460   16.6370   18.5150 H   0  0  0  0  0  0  0  0  0  0  0  0
    1.2090   17.5220   19.7990 H   0  0  0  0  0  0  0  0  0  0  0  0
    0.7360   18.3330   18.3000 H   0  0  0  0  0  0  0  0  0  0  0  0
    0.6610   16.1000   17.1700 H   0  0  0  0  0  0  0  0  0  0  0  0
    1.1980   15.3490   18.6930 H   0  0  0  0  0  0  0  0  0  0  0  0
   -0.9000   16.2030   19.7860 H   0  0  0  0  0  0  0  0  0  0  0  0
   -1.4230   16.8180   18.2020 H   0  0  0  0  0  0  0  0  0  0  0  0
   -2.4980   14.6950   18.5720 H   0  0  0  0  0  0  0  0  0  0  0  0
   -1.2650   14.4620   17.3140 H   0  0  0  0  0  0  0  0  0  0  0  0
   -1.1760   12.8310   18.9250 H   0  0  0  0  0  0  0  0  0  0  0  0
  1  2  1  0  0  0  0
  1  4  1  0  0  0  0
  1  9  2  0  0  0  0
  2  3  2  0  0  0  0
  2 31  1  0  0  0  0
  3  5  1  0  0  0  0
  3  6  1  0  0  0  0
  4 32  1  0  0  0  0
  5 19  2  0  0  0  0
  5 33  1  0  0  0  0
  6  7  1  0  0  0  0
  6  8  2  0  0  0  0
  7 10  1  0  0  0  0
  7 34  1  0  0  0  0
  9 16  1  0  0  0  0
  9 19  1  0  0  0  0
 10 11  2  0  0  0  0
 10 12  1  0  0  0  0
 11 13  1  0  0  0  0
 11 17  1  0  0  0  0
 12 14  2  0  0  0  0
 12 15  1  0  0  0  0
 13 35  1  0  0  0  0
 15 18  1  0  0  0  0
 15 20  1  0  0  0  0
 16 36  1  0  0  0  0
 17 20  1  0  0  0  0
 17 23  1  0  0  0  0
 18 21  1  0  0  0  0
 18 37  1  0  0  0  0
 18 38  1  0  0  0  0
 19 39  1  0  0  0  0
 20 22  2  0  0  0  0
 21 24  2  0  0  0  0
 21 26  1  0  0  0  0
 23 25  1  0  0  0  0
 23 40  1  0  0  0  0
 23 41  1  0  0  0  0
 25 27  1  0  0  0  0
 25 42  1  0  0  0  0
 25 43  1  0  0  0  0
 27 28  1  0  0  0  0
 27 44  1  0  0  0  0
 27 45  1  0  0  0  0
 28 29  1  0  0  0  0
 28 46  1  0  0  0  0
 28 47  1  0  0  0  0
 29 30  1  0  0  0  0
 29 48  1  0  0  0  0
 29 49  1  0  0  0  0
 30 50  1  0  0  0  0
M  CHG  1  26  -1
M  END
> <rseq>
1

> <mseq>
233

> <S>
-5.882013

> <rmsd_refine>
2.296977

> <E_conf>
-140.1534

> <E_score1>
-13.25591

> <E_refine>
-32.95117

> <E_score2>
-5.882013

>  <$File>
outputs/pdb_4j58_cleaned.pdb_2024_06_17__22_47_40_V2_BS398_MIN1_/SDF/sdf_db.sdf

> <Rec_index>
1

>  <PLIF_raw>
[[30,26,26,30,24,26,26,1,9,19,5,3,2],[1077,826,829,1212,826,826,829,823,823,823,823,823,823],[72,54,54,81,54,54,54,54,54,54,54,54,54],[3,2,2,2,7,7,7,10,10,10,10,10,10],[0.9,1.8,0.7,0.7,2.02731712,4.742114433,2.960710528,0.5,0.5,0.5,0.5,0.5,0.5]]

> <FP:PLIF>
6 19 1 16 2 45 17

>  <PLIF_ligidx>
[[26,26],26,[24,26,26],26,[1,9,19,5,3,2],30,30]

$$$$
233
  MOE2022           3D

 59 62  0  0  1  0  0  0  0  0999 V2000
    2.7230   16.2880   20.8330 C   0  0  0  0  0  0  0  0  0  0  0  0
    1.5720   15.7470   21.3900 C   0  0  0  0  0  0  0  0  0  0  0  0
    2.6790   16.8980   19.5850 C   0  0  0  0  0  0  0  0  0  0  0  0
    0.3740   15.8010   20.6850 C   0  0  0  0  0  0  0  0  0  0  0  0
    0.3350   16.3920   19.4270 C   0  0  0  0  0  0  0  0  0  0  0  0
    1.4810   16.9590   18.8730 C   0  0  0  0  0  0  0  0  0  0  0  0
    1.3970   17.6160   17.5050 C   0  0  1  0  0  0  0  0  0  0  0  0
    2.1820   18.8640   17.4330 N   0  0  0  0  0  0  0  0  0  0  0  0
    1.6120   16.5770   16.3740 C   0  0  0  0  0  0  0  0  0  0  0  0
    3.4230   19.0430   16.9540 C   0  0  0  0  0  0  0  0  0  0  0  0
    1.6190   17.0260   14.9440 N   0  0  0  0  0  0  0  0  0  0  0  0
    0.7640   18.0490   14.4640 C   0  0  0  0  0  0  0  0  0  0  0  0
   -0.0600   18.5580   15.1950 O   0  0  0  0  0  0  0  0  0  0  0  0
    2.4080   16.2910   14.0270 C   0  0  0  0  0  0  0  0  0  0  0  0
    4.0820   18.1460   16.4330 O   0  0  0  0  0  0  0  0  0  0  0  0
    3.0430   15.3220   14.4000 O   0  0  0  0  0  0  0  0  0  0  0  0
    2.4420   16.7610   12.5800 C   0  0  2  0  0  0  0  0  0  0  0  0
    0.8520   18.4620   13.0020 C   0  0  0  0  0  0  0  0  0  0  0  0
    1.1620   17.3100   12.1700 N   0  0  0  0  0  0  0  0  0  0  0  0
    1.2890   17.5470   10.7390 C   0  0  0  0  0  0  0  0  0  0  0  0
    3.9540   20.4620   17.0500 C   0  0  0  0  0  0  0  0  0  0  0  0
    2.7660   15.7520   11.4720 C   0  0  1  0  0  0  0  0  0  0  0  0
    2.1480   16.3850   10.2200 C   0  0  0  0  0  0  0  0  0  0  0  0
    5.3750   20.5830   17.5780 C   0  0  0  0  0  0  0  0  0  0  0  0
    4.1550   15.5410   11.3290 O   0  0  0  0  0  0  0  0  0  0  0  0
    6.3650   21.0870   16.8210 C   0  0  0  0  0  0  0  0  0  0  0  0
    5.6160   20.0930   18.9980 C   0  0  0  0  0  0  0  0  0  0  0  0
    6.9520   20.5680   19.5930 C   0  0  0  0  0  0  0  0  0  0  0  0
    8.0920   20.4360   18.5820 C   0  0  0  0  0  0  0  0  0  0  0  0
    7.7950   21.2380   17.3060 C   0  0  0  0  0  0  0  0  0  0  0  0
    3.6380   16.2320   21.3590 H   0  0  0  0  0  0  0  0  0  0  0  0
    1.6140   15.2980   22.3480 H   0  0  0  0  0  0  0  0  0  0  0  0
    3.5620   17.3160   19.1800 H   0  0  0  0  0  0  0  0  0  0  0  0
   -0.5110   15.3940   21.0980 H   0  0  0  0  0  0  0  0  0  0  0  0
   -0.5800   16.4140   18.8920 H   0  0  0  0  0  0  0  0  0  0  0  0
    0.3670   17.9300   17.4220 H   0  0  0  0  0  0  0  0  0  0  0  0
    1.7420   19.6650   17.8590 H   0  0  0  0  0  0  0  0  0  0  0  0
    2.5400   16.0690   16.6010 H   0  0  0  0  0  0  0  0  0  0  0  0
    0.8590   15.8080   16.4820 H   0  0  0  0  0  0  0  0  0  0  0  0
    3.1700   17.5610   12.5210 H   0  0  0  0  0  0  0  0  0  0  0  0
   -0.0810   18.9040   12.6800 H   0  0  0  0  0  0  0  0  0  0  0  0
    1.6170   19.2180   12.8790 H   0  0  0  0  0  0  0  0  0  0  0  0
    0.3170   17.5850   10.2650 H   0  0  0  0  0  0  0  0  0  0  0  0
    1.7900   18.4910   10.5650 H   0  0  0  0  0  0  0  0  0  0  0  0
    3.8860   20.9130   16.0700 H   0  0  0  0  0  0  0  0  0  0  0  0
    3.3030   21.0640   17.6690 H   0  0  0  0  0  0  0  0  0  0  0  0
    2.2580   14.8120   11.6910 H   0  0  0  0  0  0  0  0  0  0  0  0
    1.5210   15.6510    9.7130 H   0  0  0  0  0  0  0  0  0  0  0  0
    2.9130   16.7580    9.5370 H   0  0  0  0  0  0  0  0  0  0  0  0
    4.4420   14.9600   12.0400 H   0  0  0  0  0  0  0  0  0  0  0  0
    6.1830   21.4310   15.8360 H   0  0  0  0  0  0  0  0  0  0  0  0
    4.8090   20.4060   19.6440 H   0  0  0  0  0  0  0  0  0  0  0  0
    5.5910   19.0130   18.9990 H   0  0  0  0  0  0  0  0  0  0  0  0
    6.8600   21.6170   19.8780 H   0  0  0  0  0  0  0  0  0  0  0  0
    7.1800   19.9830   20.4830 H   0  0  0  0  0  0  0  0  0  0  0  0
    9.0250   20.7900   19.0230 H   0  0  0  0  0  0  0  0  0  0  0  0
    8.2110   19.3860   18.3180 H   0  0  0  0  0  0  0  0  0  0  0  0
    8.4830   20.9430   16.5260 H   0  0  0  0  0  0  0  0  0  0  0  0
    7.9890   22.2860   17.4900 H   0  0  0  0  0  0  0  0  0  0  0  0
  1  2  2  0  0  0  0
  1  3  1  0  0  0  0
  1 31  1  0  0  0  0
  2  4  1  0  0  0  0
  2 32  1  0  0  0  0
  3  6  2  0  0  0  0
  3 33  1  0  0  0  0
  4  5  2  0  0  0  0
  4 34  1  0  0  0  0
  5  6  1  0  0  0  0
  5 35  1  0  0  0  0
  6  7  1  0  0  0  0
  7  8  1  0  0  0  0
  7  9  1  0  0  0  0
  7 36  1  0  0  0  0
  8 10  1  0  0  0  0
  8 37  1  0  0  0  0
  9 11  1  0  0  0  0
  9 38  1  0  0  0  0
  9 39  1  0  0  0  0
 10 15  2  0  0  0  0
 10 21  1  0  0  0  0
 11 12  1  0  0  0  0
 11 14  1  0  0  0  0
 12 13  2  0  0  0  0
 12 18  1  0  0  0  0
 14 16  2  0  0  0  0
 14 17  1  0  0  0  0
 17 19  1  0  0  0  0
 17 22  1  0  0  0  0
 17 40  1  0  0  0  0
 18 19  1  0  0  0  0
 18 41  1  0  0  0  0
 18 42  1  0  0  0  0
 19 20  1  0  0  0  0
 20 23  1  0  0  0  0
 20 43  1  0  0  0  0
 20 44  1  0  0  0  0
 21 24  1  0  0  0  0
 21 45  1  0  0  0  0
 21 46  1  0  0  0  0
 22 23  1  0  0  0  0
 22 25  1  0  0  0  0
 22 47  1  0  0  0  0
 23 48  1  0  0  0  0
 23 49  1  0  0  0  0
 24 26  2  0  0  0  0
 24 27  1  0  0  0  0
 25 50  1  0  0  0  0
 26 30  1  0  0  0  0
 26 51  1  0  0  0  0
 27 28  1  0  0  0  0
 27 52  1  0  0  0  0
 27 53  1  0  0  0  0
 28 29  1  0  0  0  0
 28 54  1  0  0  0  0
 28 55  1  0  0  0  0
 29 30  1  0  0  0  0
 29 56  1  0  0  0  0
 29 57  1  0  0  0  0
 30 58  1  0  0  0  0
 30 59  1  0  0  0  0
M  END
> <rseq>
1

> <mseq>
234

> <S>
-6.943279

> <rmsd_refine>
1.141431

> <E_conf>
70.94382

> <E_score1>
-9.177437

> <E_refine>
-36.19406

> <E_score2>
-6.943279

>  <$File>
outputs/pdb_4j58_cleaned.pdb_2024_06_17__22_47_40_V2_BS398_MIN1_/SDF/sdf_db.sdf

> <Rec_index>
1

>  <PLIF_raw>
[15,954,62,2,1.4]

> <FP:PLIF>
20

>  <PLIF_ligidx>
15

$$$$
234
  MOE2022           3D

 44 46  0  0  1  0  0  0  0  0999 V2000
    2.5300   16.4230   20.5780 C   0  0  0  0  0  0  0  0  0  0  0  0
    1.2770   15.8500   20.7410 C   0  0  0  0  0  0  0  0  0  0  0  0
    2.8500   17.0800   19.3950 C   0  0  0  0  0  0  0  0  0  0  0  0
    0.3430   15.9290   19.7150 C   0  0  0  0  0  0  0  0  0  0  0  0
    0.6670   16.5760   18.5270 C   0  0  0  0  0  0  0  0  0  0  0  0
    1.9270   17.1520   18.3470 C   0  0  0  0  0  0  0  0  0  0  0  0
    2.2420   17.8440   17.0170 C   0  0  1  0  0  0  0  0  0  0  0  0
    3.5570   18.5100   16.9930 N   0  0  0  0  0  0  0  0  0  0  0  0
    2.0800   16.8750   15.8170 C   0  0  0  0  0  0  0  0  0  0  0  0
    3.7270   19.8500   17.2430 C   0  0  0  0  0  0  0  0  0  0  0  0
    2.5120   17.3230   14.4470 N   0  0  0  0  0  0  0  0  0  0  0  0
    2.3930   18.6450   14.0120 C   0  0  0  0  0  0  0  0  0  0  0  0
    1.7060   19.4350   14.6760 O   0  0  0  0  0  0  0  0  0  0  0  0
    2.9560   16.3790   13.5020 C   0  0  0  0  0  0  0  0  0  0  0  0
    5.0460   20.4180   17.0150 C   0  0  0  0  0  0  0  0  0  0  0  0
    2.8840   15.0720   13.8950 O   0  0  0  0  0  0  0  0  0  0  0  0
    3.4300   16.7610   12.2650 C   0  0  0  0  0  0  0  0  0  0  0  0
    3.8920   15.7740   11.2830 C   0  0  0  0  0  0  0  0  0  0  0  0
    3.3880   14.6140   11.2500 O   0  0  0  0  0  0  0  0  0  0  0  0
    2.7800   20.5240   17.6340 O   0  0  0  0  0  0  0  0  0  0  0  0
    3.0670   19.0310   12.7760 C   0  0  0  0  0  0  0  0  0  0  0  0
    4.8470   16.0580   10.5010 O   0  5  0  0  0  0  0  0  0  0  0  0
    3.2190   20.2760   12.5190 O   0  0  0  0  0  0  0  0  0  0  0  0
    3.5290   18.1180   11.9380 N   0  5  0  0  0  0  0  0  0  0  0  0
    6.1250   20.0700   17.8430 C   0  0  0  0  0  0  0  0  0  0  0  0
    5.2410   21.3300   15.9660 C   0  0  0  0  0  0  0  0  0  0  0  0
    6.4960   21.8850   15.7430 C   0  0  0  0  0  0  0  0  0  0  0  0
    7.5470   21.5160   16.5750 C   0  0  0  0  0  0  0  0  0  0  0  0
    8.7730   22.0550   16.3570 F   0  0  0  0  0  0  0  0  0  0  0  0
    7.3840   20.6160   17.6230 C   0  0  0  0  0  0  0  0  0  0  0  0
    3.2430   16.3580   21.3560 H   0  0  0  0  0  0  0  0  0  0  0  0
    1.0380   15.3590   21.6460 H   0  0  0  0  0  0  0  0  0  0  0  0
    3.8030   17.5290   19.3060 H   0  0  0  0  0  0  0  0  0  0  0  0
   -0.6170   15.4970   19.8350 H   0  0  0  0  0  0  0  0  0  0  0  0
   -0.0560   16.6310   17.7540 H   0  0  0  0  0  0  0  0  0  0  0  0
    1.4790   18.6010   16.9040 H   0  0  0  0  0  0  0  0  0  0  0  0
    4.3410   17.9850   16.5800 H   0  0  0  0  0  0  0  0  0  0  0  0
    2.6250   15.9820   16.0890 H   0  0  0  0  0  0  0  0  0  0  0  0
    1.0490   16.5540   15.7610 H   0  0  0  0  0  0  0  0  0  0  0  0
    3.1250   14.5090   13.1270 H   0  0  0  0  0  0  0  0  0  0  0  0
    5.9780   19.3880   18.6410 H   0  0  0  0  0  0  0  0  0  0  0  0
    4.4270   21.5940   15.3400 H   0  0  0  0  0  0  0  0  0  0  0  0
    6.6480   22.5760   14.9540 H   0  0  0  0  0  0  0  0  0  0  0  0
    8.2050   20.3540   18.2400 H   0  0  0  0  0  0  0  0  0  0  0  0
  1  2  2  0  0  0  0
  1  3  1  0  0  0  0
  1 31  1  0  0  0  0
  2  4  1  0  0  0  0
  2 32  1  0  0  0  0
  3  6  2  0  0  0  0
  3 33  1  0  0  0  0
  4  5  2  0  0  0  0
  4 34  1  0  0  0  0
  5  6  1  0  0  0  0
  5 35  1  0  0  0  0
  6  7  1  0  0  0  0
  7  8  1  0  0  0  0
  7  9  1  0  0  0  0
  7 36  1  0  0  0  0
  8 10  1  0  0  0  0
  8 37  1  0  0  0  0
  9 11  1  0  0  0  0
  9 38  1  0  0  0  0
  9 39  1  0  0  0  0
 10 15  1  0  0  0  0
 10 20  2  0  0  0  0
 11 12  1  0  0  0  0
 11 14  1  0  0  0  0
 12 13  2  0  0  0  0
 12 21  1  0  0  0  0
 14 16  1  0  0  0  0
 14 17  2  0  0  0  0
 15 25  2  0  0  0  0
 15 26  1  0  0  0  0
 16 40  1  0  0  0  0
 17 18  1  0  0  0  0
 17 24  1  0  0  0  0
 18 19  2  0  0  0  0
 18 22  1  0  0  0  0
 21 23  2  0  0  0  0
 21 24  1  0  0  0  0
 25 30  1  0  0  0  0
 25 41  1  0  0  0  0
 26 27  2  0  0  0  0
 26 42  1  0  0  0  0
 27 28  1  0  0  0  0
 27 43  1  0  0  0  0
 28 29  1  0  0  0  0
 28 30  2  0  0  0  0
 30 44  1  0  0  0  0
M  CHG  1  22  -1
M  CHG  1  24  -1
M  END
> <rseq>
1

> <mseq>
235

> <S>
-6.123111

> <rmsd_refine>
1.591141

> <E_conf>
-27.8411

> <E_score1>
-11.82364

> <E_refine>
-29.83845

> <E_score2>
-6.123111

>  <$File>
outputs/pdb_4j58_cleaned.pdb_2024_06_17__22_47_40_V2_BS398_MIN1_/SDF/sdf_db.sdf

> <Rec_index>
1

>  <PLIF_raw>
[[22,22,23,24,24,1,3,6,5,4,2],[823,823,829,823,829,1519,1519,1519,1519,1519,1519],[54,54,54,54,54,102,102,102,102,102,102],[2,7,7,7,7,10,10,10,10,10,10],[3.3,4.592596778,1.26276371,3.435083214,2.075267238,0.7,0.7,0.7,0.7,0.7,0.7]]

> <FP:PLIF>
6 19 1 16 22

>  <PLIF_ligidx>
[22,22,[22,23,24,24],22,[1,3,6,5,4,2]]

$$$$
235
  MOE2022           3D

 53 54  0  0  1  0  0  0  0  0999 V2000
    5.3720   14.6930    9.9190 C   0  0  0  0  0  0  0  0  0  0  0  0
    4.5390   14.4790   11.0100 C   0  0  0  0  0  0  0  0  0  0  0  0
    3.6650   15.4910   11.4360 C   0  0  0  0  0  0  0  0  0  0  0  0
    6.2490   13.7070    9.5410 O   0  0  0  0  0  0  0  0  0  0  0  0
    3.6310   16.7060   10.7230 C   0  0  0  0  0  0  0  0  0  0  0  0
    2.8180   15.2860   12.6120 C   0  0  0  0  0  0  0  0  0  0  0  0
    2.4360   16.3960   13.3170 N   0  0  0  0  0  0  0  0  0  0  0  0
    2.4470   14.1830   13.0030 O   0  0  0  0  0  0  0  0  0  0  0  0
    5.3210   15.9000    9.2200 C   0  0  0  0  0  0  0  0  0  0  0  0
    1.5610   16.3950   14.5010 C   0  0  1  0  0  0  0  0  0  0  0  0
    2.3240   16.3120   15.8190 C   0  0  0  0  0  0  0  0  0  0  0  0
    0.6350   17.6070   14.5180 C   0  0  0  0  0  0  0  0  0  0  0  0
    3.5360   16.0800   15.8590 O   0  0  0  0  0  0  0  0  0  0  0  0
    0.5900   18.4060   13.5800 O   0  0  0  0  0  0  0  0  0  0  0  0
   -0.0720   17.7980   15.6480 N   0  0  0  0  0  0  0  0  0  0  0  0
    6.1120   16.1010    8.1320 O   0  0  0  0  0  0  0  0  0  0  0  0
    1.6210   16.6010   16.9350 N   0  0  0  0  0  0  0  0  0  0  0  0
    4.4540   16.9100    9.6210 C   0  0  0  0  0  0  0  0  0  0  0  0
    2.3230   16.8270   18.2030 C   0  0  1  0  0  0  0  0  0  0  0  0
    0.2050   16.9800   16.8270 C   0  0  0  0  0  0  0  0  0  0  0  0
    3.0920   18.1620   18.1890 C   0  0  0  0  0  0  0  0  0  0  0  0
   -0.9840   18.9320   15.8150 C   0  0  0  0  0  0  0  0  0  0  0  0
    1.4100   16.7640   19.3340 O   0  0  0  0  0  0  0  0  0  0  0  0
    1.9580   16.3010   20.5860 C   0  0  0  0  0  0  0  0  0  0  0  0
    2.2530   19.2930   17.8260 O   0  0  0  0  0  0  0  0  0  0  0  0
    2.7880   20.5020   17.5810 C   0  0  0  0  0  0  0  0  0  0  0  0
    1.8360   21.6500   17.2500 C   0  0  0  0  0  0  0  0  0  0  0  0
    4.0060   20.6810   17.6410 O   0  0  0  0  0  0  0  0  0  0  0  0
    2.2470   22.9700   17.9140 C   0  0  0  0  0  0  0  0  0  0  0  0
    2.1710   22.8700   19.3210 O   0  0  0  0  0  0  0  0  0  0  0  0
    4.5730   13.5550   11.5240 H   0  0  0  0  0  0  0  0  0  0  0  0
    6.1850   12.9460   10.1520 H   0  0  0  0  0  0  0  0  0  0  0  0
    2.9670   17.4780   11.0170 H   0  0  0  0  0  0  0  0  0  0  0  0
    2.7750   17.3180   13.0030 H   0  0  0  0  0  0  0  0  0  0  0  0
    0.9150   15.5270   14.4740 H   0  0  0  0  0  0  0  0  0  0  0  0
    6.6540   15.3030    7.9710 H   0  0  0  0  0  0  0  0  0  0  0  0
    4.4180   17.8250    9.0880 H   0  0  0  0  0  0  0  0  0  0  0  0
    3.0380   16.0270   18.3430 H   0  0  0  0  0  0  0  0  0  0  0  0
   -0.1090   17.5190   17.7110 H   0  0  0  0  0  0  0  0  0  0  0  0
   -0.4070   16.0880   16.8060 H   0  0  0  0  0  0  0  0  0  0  0  0
    3.5370   18.3450   19.1660 H   0  0  0  0  0  0  0  0  0  0  0  0
    3.8970   18.0980   17.4570 H   0  0  0  0  0  0  0  0  0  0  0  0
   -1.8010   18.6880   16.4810 H   0  0  0  0  0  0  0  0  0  0  0  0
   -0.4690   19.7860   16.2330 H   0  0  0  0  0  0  0  0  0  0  0  0
   -1.4240   19.2410   14.8760 H   0  0  0  0  0  0  0  0  0  0  0  0
    2.8810   16.8310   20.8180 H   0  0  0  0  0  0  0  0  0  0  0  0
    1.2380   16.4760   21.3850 H   0  0  0  0  0  0  0  0  0  0  0  0
    2.1620   15.2330   20.5270 H   0  0  0  0  0  0  0  0  0  0  0  0
    1.8190   21.7830   16.1690 H   0  0  0  0  0  0  0  0  0  0  0  0
    0.8280   21.3910   17.5710 H   0  0  0  0  0  0  0  0  0  0  0  0
    3.2660   23.2260   17.6210 H   0  0  0  0  0  0  0  0  0  0  0  0
    1.5770   23.7630   17.5790 H   0  0  0  0  0  0  0  0  0  0  0  0
    2.5770   22.0430   19.5970 H   0  0  0  0  0  0  0  0  0  0  0  0
  1  2  1  0  0  0  0
  1  4  1  0  0  0  0
  1  9  2  0  0  0  0
  2  3  2  0  0  0  0
  2 31  1  0  0  0  0
  3  5  1  0  0  0  0
  3  6  1  0  0  0  0
  4 32  1  0  0  0  0
  5 18  2  0  0  0  0
  5 33  1  0  0  0  0
  6  7  1  0  0  0  0
  6  8  2  0  0  0  0
  7 10  1  0  0  0  0
  7 34  1  0  0  0  0
  9 16  1  0  0  0  0
  9 18  1  0  0  0  0
 10 11  1  0  0  0  0
 10 12  1  0  0  0  0
 10 35  1  0  0  0  0
 11 13  2  0  0  0  0
 11 17  1  0  0  0  0
 12 14  2  0  0  0  0
 12 15  1  0  0  0  0
 15 20  1  0  0  0  0
 15 22  1  0  0  0  0
 16 36  1  0  0  0  0
 17 19  1  0  0  0  0
 17 20  1  0  0  0  0
 18 37  1  0  0  0  0
 19 21  1  0  0  0  0
 19 23  1  0  0  0  0
 19 38  1  0  0  0  0
 20 39  1  0  0  0  0
 20 40  1  0  0  0  0
 21 25  1  0  0  0  0
 21 41  1  0  0  0  0
 21 42  1  0  0  0  0
 22 43  1  0  0  0  0
 22 44  1  0  0  0  0
 22 45  1  0  0  0  0
 23 24  1  0  0  0  0
 24 46  1  0  0  0  0
 24 47  1  0  0  0  0
 24 48  1  0  0  0  0
 25 26  1  0  0  0  0
 26 27  1  0  0  0  0
 26 28  2  0  0  0  0
 27 29  1  0  0  0  0
 27 49  1  0  0  0  0
 27 50  1  0  0  0  0
 29 30  1  0  0  0  0
 29 51  1  0  0  0  0
 29 52  1  0  0  0  0
 30 53  1  0  0  0  0
M  END
> <rseq>
1

> <mseq>
236

> <S>
-6.263311

> <rmsd_refine>
2.091386

> <E_conf>
-76.78567

> <E_score1>
-11.07758

> <E_refine>
-33.72015

> <E_score2>
-6.263311

>  <$File>
outputs/pdb_4j58_cleaned.pdb_2024_06_17__22_47_40_V2_BS398_MIN1_/SDF/sdf_db.sdf

> <Rec_index>
1

>  <PLIF_raw>
[[30,13],[1504,954],[101,62],[3,2],[0.9,1]]

> <FP:PLIF>
20 8

>  <PLIF_ligidx>
[13,30]

$$$$
236
  MOE2022           3D

 59 61  0  0  1  0  0  0  0  0999 V2000
    8.7230   21.0930   18.8090 C   0  0  0  0  0  0  0  0  0  0  0  0
    7.4950   21.2190   17.9010 C   0  0  0  0  0  0  0  0  0  0  0  0
    7.3560   22.6840   17.4590 C   0  0  0  0  0  0  0  0  0  0  0  0
    6.2550   20.7180   18.6720 C   0  0  0  0  0  0  0  0  0  0  0  0
    4.9630   20.7710   17.8590 C   0  0  0  0  0  0  0  0  0  0  0  0
    7.7210   20.4280   16.7550 O   0  0  0  0  0  0  0  0  0  0  0  0
    4.6370   19.6660   17.1810 N   0  0  0  0  0  0  0  0  0  0  0  0
    4.2930   21.8010   17.8440 O   0  0  0  0  0  0  0  0  0  0  0  0
    3.4740   19.5470   16.2960 C   0  0  2  0  0  0  0  0  0  0  0  0
    2.1200   19.7320   16.9820 C   0  0  0  0  0  0  0  0  0  0  0  0
    3.4310   18.1790   15.6580 C   0  0  0  0  0  0  0  0  0  0  0  0
    1.5300   18.6170   17.4810 N   0  0  0  0  0  0  0  0  0  0  0  0
    1.5160   20.8020   16.9000 O   0  0  0  0  0  0  0  0  0  0  0  0
    0.0760   18.4740   17.4290 C   0  0  0  0  0  0  0  0  0  0  0  0
   -0.4360   18.0110   16.0600 C   0  0  0  0  0  0  0  0  0  0  0  0
    3.1870   17.1040   16.5100 N   0  0  0  0  0  0  0  0  0  0  0  0
    2.2800   17.3630   17.6290 C   0  0  1  0  0  0  0  0  0  0  0  0
    2.9380   15.9410   15.6500 C   0  0  0  0  0  0  0  0  0  0  0  0
    3.0810   16.4320   14.2300 C   0  0  0  0  0  0  0  0  0  0  0  0
    3.0100   17.3610   18.8530 O   0  0  0  0  0  0  0  0  0  0  0  0
    2.8580   15.6700   13.1400 C   0  0  0  0  0  0  0  0  0  0  0  0
    3.4140   17.8210   14.3610 C   0  0  0  0  0  0  0  0  0  0  0  0
    2.9220   16.1620   11.7090 C   0  0  0  0  0  0  0  0  0  0  0  0
    3.9900   15.4700   10.8760 C   0  0  0  0  0  0  0  0  0  0  0  0
    4.1320   14.0840   10.9420 C   0  0  0  0  0  0  0  0  0  0  0  0
    5.1020   13.4300   10.1880 C   0  0  0  0  0  0  0  0  0  0  0  0
    4.8320   16.1800   10.0110 C   0  0  0  0  0  0  0  0  0  0  0  0
    4.7180   17.5350    9.8900 O   0  0  0  0  0  0  0  0  0  0  0  0
    5.9320   14.1540    9.3390 C   0  0  0  0  0  0  0  0  0  0  0  0
    5.8000   15.5340    9.2450 C   0  0  0  0  0  0  0  0  0  0  0  0
    8.8820   20.0480   19.0760 H   0  0  0  0  0  0  0  0  0  0  0  0
    9.6090   21.4670   18.3000 H   0  0  0  0  0  0  0  0  0  0  0  0
    8.5720   21.6790   19.7150 H   0  0  0  0  0  0  0  0  0  0  0  0
    6.5460   22.7870   16.7360 H   0  0  0  0  0  0  0  0  0  0  0  0
    7.1460   23.3170   18.3210 H   0  0  0  0  0  0  0  0  0  0  0  0
    8.2810   23.0210   16.9890 H   0  0  0  0  0  0  0  0  0  0  0  0
    6.4260   19.6900   18.9970 H   0  0  0  0  0  0  0  0  0  0  0  0
    6.1200   21.3250   19.5680 H   0  0  0  0  0  0  0  0  0  0  0  0
    7.9740   19.5460   17.0400 H   0  0  0  0  0  0  0  0  0  0  0  0
    5.2440   18.8630   17.2420 H   0  0  0  0  0  0  0  0  0  0  0  0
    3.5680   20.2920   15.5170 H   0  0  0  0  0  0  0  0  0  0  0  0
   -0.2380   17.7630   18.1800 H   0  0  0  0  0  0  0  0  0  0  0  0
   -0.4030   19.4100   17.6790 H   0  0  0  0  0  0  0  0  0  0  0  0
   -0.0280   17.0340   15.8010 H   0  0  0  0  0  0  0  0  0  0  0  0
   -1.5230   17.9370   16.0710 H   0  0  0  0  0  0  0  0  0  0  0  0
   -0.1490   18.7230   15.2850 H   0  0  0  0  0  0  0  0  0  0  0  0
    1.5760   16.5430   17.7000 H   0  0  0  0  0  0  0  0  0  0  0  0
    3.6690   15.1800   15.8680 H   0  0  0  0  0  0  0  0  0  0  0  0
    1.9490   15.5350   15.8100 H   0  0  0  0  0  0  0  0  0  0  0  0
    3.3990   16.4840   18.9930 H   0  0  0  0  0  0  0  0  0  0  0  0
    2.5920   14.6510   13.2520 H   0  0  0  0  0  0  0  0  0  0  0  0
    3.5460   18.4920   13.5520 H   0  0  0  0  0  0  0  0  0  0  0  0
    1.9610   15.9930   11.2430 H   0  0  0  0  0  0  0  0  0  0  0  0
    3.0450   17.2350   11.6970 H   0  0  0  0  0  0  0  0  0  0  0  0
    3.4990   13.5100   11.5670 H   0  0  0  0  0  0  0  0  0  0  0  0
    5.2030   12.3780   10.2570 H   0  0  0  0  0  0  0  0  0  0  0  0
    5.3740   17.8780    9.2500 H   0  0  0  0  0  0  0  0  0  0  0  0
    6.6560   13.6460    8.7600 H   0  0  0  0  0  0  0  0  0  0  0  0
    6.4240   16.0860    8.5920 H   0  0  0  0  0  0  0  0  0  0  0  0
  1  2  1  0  0  0  0
  1 31  1  0  0  0  0
  1 32  1  0  0  0  0
  1 33  1  0  0  0  0
  2  3  1  0  0  0  0
  2  4  1  0  0  0  0
  2  6  1  0  0  0  0
  3 34  1  0  0  0  0
  3 35  1  0  0  0  0
  3 36  1  0  0  0  0
  4  5  1  0  0  0  0
  4 37  1  0  0  0  0
  4 38  1  0  0  0  0
  5  7  1  0  0  0  0
  5  8  2  0  0  0  0
  6 39  1  0  0  0  0
  7  9  1  0  0  0  0
  7 40  1  0  0  0  0
  9 10  1  0  0  0  0
  9 11  1  0  0  0  0
  9 41  1  0  0  0  0
 10 12  1  0  0  0  0
 10 13  2  0  0  0  0
 11 16  1  0  0  0  0
 11 22  2  0  0  0  0
 12 14  1  0  0  0  0
 12 17  1  0  0  0  0
 14 15  1  0  0  0  0
 14 42  1  0  0  0  0
 14 43  1  0  0  0  0
 15 44  1  0  0  0  0
 15 45  1  0  0  0  0
 15 46  1  0  0  0  0
 16 17  1  0  0  0  0
 16 18  1  0  0  0  0
 17 20  1  0  0  0  0
 17 47  1  0  0  0  0
 18 19  1  0  0  0  0
 18 48  1  0  0  0  0
 18 49  1  0  0  0  0
 19 21  2  0  0  0  0
 19 22  1  0  0  0  0
 20 50  1  0  0  0  0
 21 23  1  0  0  0  0
 21 51  1  0  0  0  0
 22 52  1  0  0  0  0
 23 24  1  0  0  0  0
 23 53  1  0  0  0  0
 23 54  1  0  0  0  0
 24 25  1  0  0  0  0
 24 27  2  0  0  0  0
 25 26  2  0  0  0  0
 25 55  1  0  0  0  0
 26 29  1  0  0  0  0
 26 56  1  0  0  0  0
 27 28  1  0  0  0  0
 27 30  1  0  0  0  0
 28 57  1  0  0  0  0
 29 30  2  0  0  0  0
 29 58  1  0  0  0  0
 30 59  1  0  0  0  0
M  END
> <rseq>
1

> <mseq>
237

> <S>
-6.840864

> <rmsd_refine>
0.9997759

> <E_conf>
-159.1956

> <E_score1>
-10.23787

> <E_refine>
-43.70884

> <E_score2>
-6.840864

>  <$File>
outputs/pdb_4j58_cleaned.pdb_2024_06_17__22_47_40_V2_BS398_MIN1_/SDF/sdf_db.sdf

> <Rec_index>
1

>  <PLIF_raw>
[[7,28],[953,2222],[62,148],[1,3],[1,1.4]]

> <FP:PLIF>
28 39

>  <PLIF_ligidx>
[7,28]

$$$$
237
  MOE2022           3D

 47 51  0  0  1  0  0  0  0  0999 V2000
    5.7160   15.0780    9.6910 C   0  0  0  0  0  0  0  0  0  0  0  0
    5.3750   15.9670    8.6800 C   0  0  0  0  0  0  0  0  0  0  0  0
    4.8120   14.8700   10.7250 C   0  0  0  0  0  0  0  0  0  0  0  0
    6.2280   16.1670    7.6700 F   0  0  0  0  0  0  0  0  0  0  0  0
    3.5860   15.5540   10.7490 C   0  0  0  0  0  0  0  0  0  0  0  0
    2.6380   15.3580   11.8220 C   0  0  0  0  0  0  0  0  0  0  0  0
    4.1710   16.6570    8.6700 C   0  0  0  0  0  0  0  0  0  0  0  0
    3.2760   16.4440    9.7090 C   0  0  0  0  0  0  0  0  0  0  0  0
    2.9490   15.5890   13.1500 N   0  0  0  0  0  0  0  0  0  0  0  0
    1.3170   14.9950   11.7870 C   0  0  0  0  0  0  0  0  0  0  0  0
    1.8350   15.3950   13.9180 C   0  0  0  0  0  0  0  0  0  0  0  0
    1.8270   15.5900   15.3180 N   0  0  0  0  0  0  0  0  0  0  0  0
    0.8150   15.0130   13.0880 C   0  0  0  0  0  0  0  0  0  0  0  0
    0.6100   16.1630   15.8690 C   0  0  0  0  0  0  0  0  0  0  0  0
    2.9290   16.2620   16.0130 C   0  0  0  0  0  0  0  0  0  0  0  0
    2.4950   17.7030   16.3490 C   0  0  2  0  0  0  0  0  0  0  0  0
    3.2450   18.1810   17.6110 C   0  0  0  0  0  0  0  0  0  0  0  0
    0.9360   17.5620   16.4110 C   0  0  2  0  0  0  0  0  0  0  0  0
    2.8750   18.6520   15.2040 C   0  0  0  0  0  0  0  0  0  0  0  0
    3.7520   18.3030   14.3820 O   0  5  0  0  0  0  0  0  0  0  0  0
    2.3420   19.7850   15.1890 O   0  0  0  0  0  0  0  0  0  0  0  0
    3.0810   17.6310   18.8420 O   0  0  0  0  0  0  0  0  0  0  0  0
    4.1350   18.9990   17.5580 O   0  0  0  0  0  0  0  0  0  0  0  0
    2.0300   16.8710   19.2650 C   0  0  0  0  0  0  0  0  0  0  0  0
    2.1680   15.9950   20.2540 O   0  0  0  0  0  0  0  0  0  0  0  0
    0.9780   15.3910   20.4450 N   0  0  0  0  0  0  0  0  0  0  0  0
    0.1390   15.8990   19.5980 C   0  0  0  0  0  0  0  0  0  0  0  0
   -1.3040   15.4590   19.5000 C   0  0  0  0  0  0  0  0  0  0  0  0
    0.7670   16.8770   18.8320 C   0  0  0  0  0  0  0  0  0  0  0  0
    0.2580   17.8040   17.7570 C   0  0  0  0  0  0  0  0  0  0  0  0
    6.6420   14.5640    9.6710 H   0  0  0  0  0  0  0  0  0  0  0  0
    5.0440   14.1810   11.4960 H   0  0  0  0  0  0  0  0  0  0  0  0
    3.9410   17.3300    7.8860 H   0  0  0  0  0  0  0  0  0  0  0  0
    2.3520   16.9630    9.7210 H   0  0  0  0  0  0  0  0  0  0  0  0
    3.8560   15.9250   13.5110 H   0  0  0  0  0  0  0  0  0  0  0  0
    0.7730   14.7530   10.9110 H   0  0  0  0  0  0  0  0  0  0  0  0
   -0.1740   14.7840   13.3830 H   0  0  0  0  0  0  0  0  0  0  0  0
   -0.1910   16.2210   15.1450 H   0  0  0  0  0  0  0  0  0  0  0  0
    0.2500   15.5120   16.6530 H   0  0  0  0  0  0  0  0  0  0  0  0
    3.1050   15.7240   16.9350 H   0  0  0  0  0  0  0  0  0  0  0  0
    3.8650   16.2000   15.4820 H   0  0  0  0  0  0  0  0  0  0  0  0
    0.4910   18.2570   15.6980 H   0  0  0  0  0  0  0  0  0  0  0  0
   -1.9520   16.1600   20.0240 H   0  0  0  0  0  0  0  0  0  0  0  0
   -1.6130   15.4060   18.4560 H   0  0  0  0  0  0  0  0  0  0  0  0
   -1.4350   14.4710   19.9420 H   0  0  0  0  0  0  0  0  0  0  0  0
   -0.8180   17.6730   17.6460 H   0  0  0  0  0  0  0  0  0  0  0  0
    0.4530   18.8310   18.0610 H   0  0  0  0  0  0  0  0  0  0  0  0
  1  2  2  0  0  0  0
  1  3  1  0  0  0  0
  1 31  1  0  0  0  0
  2  4  1  0  0  0  0
  2  7  1  0  0  0  0
  3  5  2  0  0  0  0
  3 32  1  0  0  0  0
  5  6  1  0  0  0  0
  5  8  1  0  0  0  0
  6  9  1  0  0  0  0
  6 10  2  0  0  0  0
  7  8  2  0  0  0  0
  7 33  1  0  0  0  0
  8 34  1  0  0  0  0
  9 11  1  0  0  0  0
  9 35  1  0  0  0  0
 10 13  1  0  0  0  0
 10 36  1  0  0  0  0
 11 12  1  0  0  0  0
 11 13  2  0  0  0  0
 12 14  1  0  0  0  0
 12 15  1  0  0  0  0
 13 37  1  0  0  0  0
 14 18  1  0  0  0  0
 14 38  1  0  0  0  0
 14 39  1  0  0  0  0
 15 16  1  0  0  0  0
 15 40  1  0  0  0  0
 15 41  1  0  0  0  0
 16 17  1  0  0  0  0
 16 18  1  0  0  0  0
 16 19  1  0  0  0  0
 17 22  1  0  0  0  0
 17 23  2  0  0  0  0
 18 30  1  0  0  0  0
 18 42  1  0  0  0  0
 19 20  1  0  0  0  0
 19 21  2  0  0  0  0
 22 24  1  0  0  0  0
 24 25  1  0  0  0  0
 24 29  2  0  0  0  0
 25 26  1  0  0  0  0
 26 27  2  0  0  0  0
 27 28  1  0  0  0  0
 27 29  1  0  0  0  0
 28 43  1  0  0  0  0
 28 44  1  0  0  0  0
 28 45  1  0  0  0  0
 29 30  1  0  0  0  0
 30 46  1  0  0  0  0
 30 47  1  0  0  0  0
M  CHG  1  20  -1
M  END
> <rseq>
1

> <mseq>
238

> <S>
-6.143126

> <rmsd_refine>
1.09637

> <E_conf>
-73.40819

> <E_score1>
-11.52128

> <E_refine>
-28.25388

> <E_score2>
-6.143126

>  <$File>
outputs/pdb_4j58_cleaned.pdb_2024_06_17__22_47_40_V2_BS398_MIN1_/SDF/sdf_db.sdf

> <Rec_index>
1

>  <PLIF_raw>
[[26,20,20,20],[1212,823,826,829],[81,54,54,54],[2,7,7,7],[2.8,2.520262895,3.43656089,0.6324739566]]

> <FP:PLIF>
1 17 18

>  <PLIF_ligidx>
[[20,20,20],26,26]

$$$$
238
  MOE2022           3D

 62 64  0  0  1  0  0  0  0  0999 V2000
    2.4780   16.3640   20.7390 C   0  0  0  0  0  0  0  0  0  0  0  0
    1.1740   15.9050   20.8600 C   0  0  0  0  0  0  0  0  0  0  0  0
    2.8810   17.0230   19.5840 C   0  0  0  0  0  0  0  0  0  0  0  0
    0.2740   16.0920   19.8170 C   0  0  0  0  0  0  0  0  0  0  0  0
    0.6810   16.7420   18.6560 C   0  0  0  0  0  0  0  0  0  0  0  0
    1.9870   17.2170   18.5290 C   0  0  0  0  0  0  0  0  0  0  0  0
    2.4040   17.8930   17.2310 C   0  0  1  0  0  0  0  0  0  0  0  0
    3.5110   18.8500   17.4030 N   0  0  0  0  0  0  0  0  0  0  0  0
    2.7060   16.8640   16.1470 C   0  0  0  0  0  0  0  0  0  0  0  0
    3.9400   19.7120   16.4190 C   0  0  0  0  0  0  0  0  0  0  0  0
    1.9880   16.9590   15.0180 N   0  0  0  0  0  0  0  0  0  0  0  0
    3.2470   19.7990   15.4060 O   0  0  0  0  0  0  0  0  0  0  0  0
    5.1960   20.4560   16.6150 C   0  0  0  0  0  0  0  0  0  0  0  0
    3.5910   16.0180   16.2780 O   0  0  0  0  0  0  0  0  0  0  0  0
    2.2180   16.1340   13.8400 C   0  0  1  0  0  0  0  0  0  0  0  0
    1.3120   14.9050   13.8130 C   0  0  0  0  0  0  0  0  0  0  0  0
    1.9110   16.8520   12.5240 C   0  0  0  0  0  0  0  0  0  0  0  0
    6.0340   20.1760   17.7090 C   0  0  0  0  0  0  0  0  0  0  0  0
    1.1040   14.6010   12.3290 C   0  0  0  0  0  0  0  0  0  0  0  0
    5.6350   21.4430   15.7060 C   0  0  0  0  0  0  0  0  0  0  0  0
    1.4180   15.8370   11.5320 N   0  3  2  0  0  0  0  0  0  0  0  0
    7.2550   20.8260   17.8730 C   0  0  0  0  0  0  0  0  0  0  0  0
    4.8960   21.7910   14.6140 O   0  0  0  0  0  0  0  0  0  0  0  0
    2.3630   15.5900   10.3810 C   0  0  0  0  0  0  0  0  0  0  0  0
    3.7990   15.1780   10.7480 C   0  0  0  0  0  0  0  0  0  0  0  0
    7.6630   21.7850   16.9480 C   0  0  0  0  0  0  0  0  0  0  0  0
    8.1500   20.4730   19.0380 C   0  0  0  0  0  0  0  0  0  0  0  0
    6.8520   22.1000   15.8670 C   0  0  0  0  0  0  0  0  0  0  0  0
    4.6550   14.8770    9.5140 C   0  0  0  0  0  0  0  0  0  0  0  0
    6.0810   14.4940    9.9130 C   0  0  0  0  0  0  0  0  0  0  0  0
    3.1660   16.2090   21.5290 H   0  0  0  0  0  0  0  0  0  0  0  0
    0.8720   15.4160   21.7450 H   0  0  0  0  0  0  0  0  0  0  0  0
    3.8750   17.3740   19.5170 H   0  0  0  0  0  0  0  0  0  0  0  0
   -0.7210   15.7400   19.9050 H   0  0  0  0  0  0  0  0  0  0  0  0
   -0.0110   16.8730   17.8630 H   0  0  0  0  0  0  0  0  0  0  0  0
    1.5510   18.4740   16.9030 H   0  0  0  0  0  0  0  0  0  0  0  0
    4.0650   18.7680   18.2670 H   0  0  0  0  0  0  0  0  0  0  0  0
    1.2870   17.6820   14.9530 H   0  0  0  0  0  0  0  0  0  0  0  0
    3.2580   15.8090   13.7910 H   0  0  0  0  0  0  0  0  0  0  0  0
    1.7730   14.0630   14.3240 H   0  0  0  0  0  0  0  0  0  0  0  0
    0.3450   15.1390   14.2630 H   0  0  0  0  0  0  0  0  0  0  0  0
    1.1590   17.6060   12.7150 H   0  0  0  0  0  0  0  0  0  0  0  0
    2.7810   17.4030   12.1900 H   0  0  0  0  0  0  0  0  0  0  0  0
    5.7520   19.4460   18.4220 H   0  0  0  0  0  0  0  0  0  0  0  0
    1.7510   13.7780   12.0560 H   0  0  0  0  0  0  0  0  0  0  0  0
    0.1020   14.2290   12.1630 H   0  0  0  0  0  0  0  0  0  0  0  0
    0.5490   16.1830   11.1480 H   0  0  0  0  0  0  0  0  0  0  0  0
    4.0480   21.2970   14.6140 H   0  0  0  0  0  0  0  0  0  0  0  0
    1.9630   14.8310    9.7210 H   0  0  0  0  0  0  0  0  0  0  0  0
    2.4280   16.4660    9.7490 H   0  0  0  0  0  0  0  0  0  0  0  0
    4.2640   15.9880   11.3080 H   0  0  0  0  0  0  0  0  0  0  0  0
    3.7670   14.2880   11.3790 H   0  0  0  0  0  0  0  0  0  0  0  0
    8.5950   22.2760   17.0670 H   0  0  0  0  0  0  0  0  0  0  0  0
    8.7800   21.3190   19.3130 H   0  0  0  0  0  0  0  0  0  0  0  0
    7.5590   20.1910   19.9090 H   0  0  0  0  0  0  0  0  0  0  0  0
    8.7970   19.6370   18.7730 H   0  0  0  0  0  0  0  0  0  0  0  0
    7.1590   22.8350   15.1680 H   0  0  0  0  0  0  0  0  0  0  0  0
    4.2080   14.0520    8.9580 H   0  0  0  0  0  0  0  0  0  0  0  0
    4.6900   15.7570    8.8700 H   0  0  0  0  0  0  0  0  0  0  0  0
    6.0660   13.6340   10.5850 H   0  0  0  0  0  0  0  0  0  0  0  0
    6.6410   14.2310    9.0170 H   0  0  0  0  0  0  0  0  0  0  0  0
    6.5710   15.3340   10.4050 H   0  0  0  0  0  0  0  0  0  0  0  0
  1  2  2  0  0  0  0
  1  3  1  0  0  0  0
  1 31  1  0  0  0  0
  2  4  1  0  0  0  0
  2 32  1  0  0  0  0
  3  6  2  0  0  0  0
  3 33  1  0  0  0  0
  4  5  2  0  0  0  0
  4 34  1  0  0  0  0
  5  6  1  0  0  0  0
  5 35  1  0  0  0  0
  6  7  1  0  0  0  0
  7  8  1  0  0  0  0
  7  9  1  0  0  0  0
  7 36  1  0  0  0  0
  8 10  1  0  0  0  0
  8 37  1  0  0  0  0
  9 11  1  0  0  0  0
  9 14  2  0  0  0  0
 10 12  2  0  0  0  0
 10 13  1  0  0  0  0
 11 15  1  0  0  0  0
 11 38  1  0  0  0  0
 13 18  1  0  0  0  0
 13 20  2  0  0  0  0
 15 16  1  0  0  0  0
 15 17  1  0  0  0  0
 15 39  1  0  0  0  0
 16 19  1  0  0  0  0
 16 40  1  0  0  0  0
 16 41  1  0  0  0  0
 17 21  1  0  0  0  0
 17 42  1  0  0  0  0
 17 43  1  0  0  0  0
 18 22  2  0  0  0  0
 18 44  1  0  0  0  0
 19 21  1  0  0  0  0
 19 45  1  0  0  0  0
 19 46  1  0  0  0  0
 20 23  1  0  0  0  0
 20 28  1  0  0  0  0
 21 24  1  0  0  0  0
 21 47  1  0  0  0  0
 22 26  1  0  0  0  0
 22 27  1  0  0  0  0
 23 48  1  0  0  0  0
 24 25  1  0  0  0  0
 24 49  1  0  0  0  0
 24 50  1  0  0  0  0
 25 29  1  0  0  0  0
 25 51  1  0  0  0  0
 25 52  1  0  0  0  0
 26 28  2  0  0  0  0
 26 53  1  0  0  0  0
 27 54  1  0  0  0  0
 27 55  1  0  0  0  0
 27 56  1  0  0  0  0
 28 57  1  0  0  0  0
 29 30  1  0  0  0  0
 29 58  1  0  0  0  0
 29 59  1  0  0  0  0
 30 60  1  0  0  0  0
 30 61  1  0  0  0  0
 30 62  1  0  0  0  0
M  CHG  1  21   1
M  END
> <rseq>
1

> <mseq>
239

> <S>
-7.14646

> <rmsd_refine>
1.558711

> <E_conf>
28.8734

> <E_score1>
-9.827005

> <E_refine>
-37.93199

> <E_score2>
-7.14646

>  <$File>
outputs/pdb_4j58_cleaned.pdb_2024_06_17__22_47_40_V2_BS398_MIN1_/SDF/sdf_db.sdf

> <Rec_index>
1

>  <PLIF_raw>
[14,954,62,2,2.2]

> <FP:PLIF>
20 23

>  <PLIF_ligidx>
[14,14]

$$$$
239
  MOE2022           3D

 55 57  0  0  1  0  0  0  0  0999 V2000
    8.3110   20.6910   18.6020 C   0  0  0  0  0  0  0  0  0  0  0  0
    8.4140   21.9280   17.9750 C   0  0  0  0  0  0  0  0  0  0  0  0
    7.0630   20.1060   18.7880 C   0  0  0  0  0  0  0  0  0  0  0  0
    5.9090   20.7520   18.3440 C   0  0  0  0  0  0  0  0  0  0  0  0
    6.0190   21.9900   17.7110 C   0  0  0  0  0  0  0  0  0  0  0  0
    7.2680   22.5770   17.5280 C   0  0  0  0  0  0  0  0  0  0  0  0
    4.5490   20.1080   18.5450 C   0  0  0  0  0  0  0  0  0  0  0  0
    4.0990   19.1860   17.4120 C   0  0  0  0  0  0  0  0  0  0  0  0
    3.0070   18.2790   17.5370 N   0  0  0  0  0  0  0  0  0  0  0  0
    2.6980   17.6400   18.7750 C   0  0  0  0  0  0  0  0  0  0  0  0
    2.3710   17.8180   16.2700 C   0  0  2  0  0  0  0  0  0  0  0  0
    4.6410   19.2810   16.3270 O   0  0  0  0  0  0  0  0  0  0  0  0
    0.8500   18.0690   16.2520 C   0  0  1  0  0  0  0  0  0  0  0  0
    1.3760   17.1210   19.1790 C   0  0  0  0  0  0  0  0  0  0  0  0
    2.8620   16.3940   15.9080 C   0  0  0  0  0  0  0  0  0  0  0  0
    1.1720   16.7700   20.3320 O   0  0  0  0  0  0  0  0  0  0  0  0
    3.6290   17.5010   19.5550 O   0  0  0  0  0  0  0  0  0  0  0  0
    0.3710   18.1650   14.9250 O   0  0  0  0  0  0  0  0  0  0  0  0
    0.0530   17.0000   16.9820 C   0  0  0  0  0  0  0  0  0  0  0  0
    2.3940   15.8210   14.5630 C   0  0  0  0  0  0  0  0  0  0  0  0
    2.7730   16.6630   13.4420 O   0  0  0  0  0  0  0  0  0  0  0  0
    3.3150   16.2910   12.2270 C   0  0  0  0  0  0  0  0  0  0  0  0
    0.2940   16.9790   18.3870 O   0  0  0  0  0  0  0  0  0  0  0  0
    3.6280   17.3170   11.3380 C   0  0  0  0  0  0  0  0  0  0  0  0
    3.5810   14.9580   11.8970 C   0  0  0  0  0  0  0  0  0  0  0  0
    4.2150   14.6600   10.6930 C   0  0  0  0  0  0  0  0  0  0  0  0
    4.5560   13.2290   10.3450 C   0  0  0  0  0  0  0  0  0  0  0  0
    4.2490   17.0130   10.1320 C   0  0  0  0  0  0  0  0  0  0  0  0
    4.5510   15.6910    9.8140 C   0  0  0  0  0  0  0  0  0  0  0  0
    5.8610   12.7470   10.8960 N   0  3  0  0  0  0  0  0  0  0  0  0
    9.1850   20.1950   18.9370 H   0  0  0  0  0  0  0  0  0  0  0  0
    9.3640   22.3740   17.8360 H   0  0  0  0  0  0  0  0  0  0  0  0
    6.9930   19.1640   19.2680 H   0  0  0  0  0  0  0  0  0  0  0  0
    5.1510   22.4880   17.3630 H   0  0  0  0  0  0  0  0  0  0  0  0
    7.3460   23.5180   17.0480 H   0  0  0  0  0  0  0  0  0  0  0  0
    4.5670   19.6250   19.5060 H   0  0  0  0  0  0  0  0  0  0  0  0
    3.8060   20.8850   18.6540 H   0  0  0  0  0  0  0  0  0  0  0  0
    2.7200   18.4460   15.4620 H   0  0  0  0  0  0  0  0  0  0  0  0
    0.6650   19.0300   16.7340 H   0  0  0  0  0  0  0  0  0  0  0  0
    3.9510   16.4160   15.8900 H   0  0  0  0  0  0  0  0  0  0  0  0
    2.5710   15.7140   16.7020 H   0  0  0  0  0  0  0  0  0  0  0  0
   -0.5300   18.5000   14.9400 H   0  0  0  0  0  0  0  0  0  0  0  0
   -1.0090   17.1940   16.8320 H   0  0  0  0  0  0  0  0  0  0  0  0
    0.2720   16.0150   16.5720 H   0  0  0  0  0  0  0  0  0  0  0  0
    2.8400   14.8360   14.4550 H   0  0  0  0  0  0  0  0  0  0  0  0
    1.3110   15.7060   14.5600 H   0  0  0  0  0  0  0  0  0  0  0  0
    3.4060   18.3220   11.5870 H   0  0  0  0  0  0  0  0  0  0  0  0
    3.3170   14.1750   12.5570 H   0  0  0  0  0  0  0  0  0  0  0  0
    3.7410   12.5990   10.6780 H   0  0  0  0  0  0  0  0  0  0  0  0
    4.5320   13.1320    9.2680 H   0  0  0  0  0  0  0  0  0  0  0  0
    4.4960   17.7890    9.4540 H   0  0  0  0  0  0  0  0  0  0  0  0
    5.0340   15.4720    8.8950 H   0  0  0  0  0  0  0  0  0  0  0  0
    6.6210   13.3570   10.6310 H   0  0  0  0  0  0  0  0  0  0  0  0
    5.8320   12.7210   11.9080 H   0  0  0  0  0  0  0  0  0  0  0  0
    6.0800   11.8140   10.5800 H   0  0  0  0  0  0  0  0  0  0  0  0
  1  2  2  0  0  0  0
  1  3  1  0  0  0  0
  1 31  1  0  0  0  0
  2  6  1  0  0  0  0
  2 32  1  0  0  0  0
  3  4  2  0  0  0  0
  3 33  1  0  0  0  0
  4  5  1  0  0  0  0
  4  7  1  0  0  0  0
  5  6  2  0  0  0  0
  5 34  1  0  0  0  0
  6 35  1  0  0  0  0
  7  8  1  0  0  0  0
  7 36  1  0  0  0  0
  7 37  1  0  0  0  0
  8  9  1  0  0  0  0
  8 12  2  0  0  0  0
  9 10  1  0  0  0  0
  9 11  1  0  0  0  0
 10 14  1  0  0  0  0
 10 17  2  0  0  0  0
 11 13  1  0  0  0  0
 11 15  1  0  0  0  0
 11 38  1  0  0  0  0
 13 18  1  0  0  0  0
 13 19  1  0  0  0  0
 13 39  1  0  0  0  0
 14 16  2  0  0  0  0
 14 23  1  0  0  0  0
 15 20  1  0  0  0  0
 15 40  1  0  0  0  0
 15 41  1  0  0  0  0
 18 42  1  0  0  0  0
 19 23  1  0  0  0  0
 19 43  1  0  0  0  0
 19 44  1  0  0  0  0
 20 21  1  0  0  0  0
 20 45  1  0  0  0  0
 20 46  1  0  0  0  0
 21 22  1  0  0  0  0
 22 24  2  0  0  0  0
 22 25  1  0  0  0  0
 24 28  1  0  0  0  0
 24 47  1  0  0  0  0
 25 26  2  0  0  0  0
 25 48  1  0  0  0  0
 26 27  1  0  0  0  0
 26 29  1  0  0  0  0
 27 30  1  0  0  0  0
 27 49  1  0  0  0  0
 27 50  1  0  0  0  0
 28 29  2  0  0  0  0
 28 51  1  0  0  0  0
 29 52  1  0  0  0  0
 30 53  1  0  0  0  0
 30 54  1  0  0  0  0
 30 55  1  0  0  0  0
M  CHG  1  30   1
M  END
> <rseq>
1

> <mseq>
240

> <S>
-6.75736

> <rmsd_refine>
0.597356

> <E_conf>
2.723664

> <E_score1>
-9.587509

> <E_refine>
-38.10883

> <E_score2>
-6.75736

>  <$File>
outputs/pdb_4j58_cleaned.pdb_2024_06_17__22_47_40_V2_BS398_MIN1_/SDF/sdf_db.sdf

> <Rec_index>
1

>  <PLIF_raw>
[30,1056,70,3,5.7]

> <FP:PLIF>
3 4

>  <PLIF_ligidx>
[30,30]

$$$$
252
  MOE2022           3D

 57 59  0  0  1  0  0  0  0  0999 V2000
    7.3760   21.2440   19.2200 C   0  0  0  0  0  0  0  0  0  0  0  0
    6.7080   20.1550   18.6750 C   0  0  0  0  0  0  0  0  0  0  0  0
    5.4080   20.3120   18.1960 C   0  0  0  0  0  0  0  0  0  0  0  0
    4.7980   19.2070   17.6310 O   0  0  0  0  0  0  0  0  0  0  0  0
    3.4760   19.1550   17.0190 C   0  0  1  0  0  0  0  0  0  0  0  0
    4.7650   21.5500   18.2750 C   0  0  0  0  0  0  0  0  0  0  0  0
    6.7460   22.4830   19.2890 C   0  0  0  0  0  0  0  0  0  0  0  0
    5.4440   22.6360   18.8190 C   0  0  0  0  0  0  0  0  0  0  0  0
    3.4200   19.8350   15.6490 C   0  0  0  0  0  0  0  0  0  0  0  0
    4.3080   20.6160   15.3050 O   0  0  0  0  0  0  0  0  0  0  0  0
    2.9830   17.7060   16.9590 C   0  0  0  0  0  0  0  0  0  0  0  0
    2.3550   19.5930   14.8460 N   0  0  0  0  0  0  0  0  0  0  0  0
    1.5690   17.6530   16.3760 C   0  0  0  0  0  0  0  0  0  0  0  0
    0.6340   18.2680   17.3010 N   0  0  0  0  0  0  0  0  0  0  0  0
    1.5510   18.3400   14.9770 C   0  0  1  0  0  0  0  0  0  0  0  0
    1.1550   16.2770   16.2450 N   0  0  0  0  0  0  0  0  0  0  0  0
    2.1600   20.3730   13.6110 C   0  0  0  0  0  0  0  0  0  0  0  0
    0.1900   18.5430   14.5160 O   0  0  0  0  0  0  0  0  0  0  0  0
    2.5630   19.5970   12.3570 C   0  0  0  0  0  0  0  0  0  0  0  0
    3.6910   19.6980   11.8750 O   0  0  0  0  0  0  0  0  0  0  0  0
    1.6230   18.8220   11.7860 O   0  0  0  0  0  0  0  0  0  0  0  0
    1.8560   18.0590   10.5760 C   0  0  0  0  0  0  0  0  0  0  0  0
    2.7510   16.8480   10.8000 C   0  0  0  0  0  0  0  0  0  0  0  0
    3.9060   16.6070   10.0370 C   0  0  0  0  0  0  0  0  0  0  0  0
    2.3780   15.9460   11.7960 C   0  0  0  0  0  0  0  0  0  0  0  0
    4.2910   17.5820    8.9300 C   0  0  0  0  0  0  0  0  0  0  0  0
    4.6820   15.4650   10.3000 C   0  0  0  0  0  0  0  0  0  0  0  0
    3.1370   14.8110   12.0380 C   0  0  0  0  0  0  0  0  0  0  0  0
    5.9610   15.1550    9.5430 C   0  0  0  0  0  0  0  0  0  0  0  0
    4.2800   14.5710   11.2900 C   0  0  0  0  0  0  0  0  0  0  0  0
    8.3680   21.1340   19.5760 H   0  0  0  0  0  0  0  0  0  0  0  0
    7.1890   19.2150   18.6200 H   0  0  0  0  0  0  0  0  0  0  0  0
    2.8050   19.6880   17.6790 H   0  0  0  0  0  0  0  0  0  0  0  0
    3.7760   21.6770   17.9200 H   0  0  0  0  0  0  0  0  0  0  0  0
    7.2600   23.3100   19.7010 H   0  0  0  0  0  0  0  0  0  0  0  0
    4.9700   23.5810   18.8730 H   0  0  0  0  0  0  0  0  0  0  0  0
    3.6590   17.1310   16.3240 H   0  0  0  0  0  0  0  0  0  0  0  0
    2.9910   17.2780   17.9630 H   0  0  0  0  0  0  0  0  0  0  0  0
    0.8370   19.2540   17.3700 H   0  0  0  0  0  0  0  0  0  0  0  0
    0.7300   17.8300   18.2050 H   0  0  0  0  0  0  0  0  0  0  0  0
    1.9860   17.6280   14.2880 H   0  0  0  0  0  0  0  0  0  0  0  0
    1.2300   15.8230   17.1440 H   0  0  0  0  0  0  0  0  0  0  0  0
    0.1860   16.2760   15.9590 H   0  0  0  0  0  0  0  0  0  0  0  0
    1.1120   20.6590   13.5240 H   0  0  0  0  0  0  0  0  0  0  0  0
    2.7310   21.3010   13.6420 H   0  0  0  0  0  0  0  0  0  0  0  0
    0.1900   18.7660   13.5720 H   0  0  0  0  0  0  0  0  0  0  0  0
    0.8960   17.7250   10.2040 H   0  0  0  0  0  0  0  0  0  0  0  0
    2.2330   18.7330    9.8220 H   0  0  0  0  0  0  0  0  0  0  0  0
    1.5060   16.1200   12.3710 H   0  0  0  0  0  0  0  0  0  0  0  0
    4.5230   18.5600    9.3520 H   0  0  0  0  0  0  0  0  0  0  0  0
    5.1510   17.2650    8.3450 H   0  0  0  0  0  0  0  0  0  0  0  0
    3.4670   17.6970    8.2260 H   0  0  0  0  0  0  0  0  0  0  0  0
    2.8440   14.1280   12.7930 H   0  0  0  0  0  0  0  0  0  0  0  0
    5.7480   14.9690    8.4900 H   0  0  0  0  0  0  0  0  0  0  0  0
    6.6580   15.9880    9.6210 H   0  0  0  0  0  0  0  0  0  0  0  0
    6.4610   14.2720    9.9430 H   0  0  0  0  0  0  0  0  0  0  0  0
    4.8530   13.7010   11.4830 H   0  0  0  0  0  0  0  0  0  0  0  0
  1  2  1  0  0  0  0
  1  7  2  0  0  0  0
  1 31  1  0  0  0  0
  2  3  2  0  0  0  0
  2 32  1  0  0  0  0
  3  4  1  0  0  0  0
  3  6  1  0  0  0  0
  4  5  1  0  0  0  0
  5  9  1  0  0  0  0
  5 11  1  0  0  0  0
  5 33  1  0  0  0  0
  6  8  2  0  0  0  0
  6 34  1  0  0  0  0
  7  8  1  0  0  0  0
  7 35  1  0  0  0  0
  8 36  1  0  0  0  0
  9 10  2  0  0  0  0
  9 12  1  0  0  0  0
 11 13  1  0  0  0  0
 11 37  1  0  0  0  0
 11 38  1  0  0  0  0
 12 15  1  0  0  0  0
 12 17  1  0  0  0  0
 13 14  1  0  0  0  0
 13 15  1  0  0  0  0
 13 16  1  0  0  0  0
 14 39  1  0  0  0  0
 14 40  1  0  0  0  0
 15 18  1  0  0  0  0
 15 41  1  0  0  0  0
 16 42  1  0  0  0  0
 16 43  1  0  0  0  0
 17 19  1  0  0  0  0
 17 44  1  0  0  0  0
 17 45  1  0  0  0  0
 18 46  1  0  0  0  0
 19 20  2  0  0  0  0
 19 21  1  0  0  0  0
 21 22  1  0  0  0  0
 22 23  1  0  0  0  0
 22 47  1  0  0  0  0
 22 48  1  0  0  0  0
 23 24  1  0  0  0  0
 23 25  2  0  0  0  0
 24 26  1  0  0  0  0
 24 27  2  0  0  0  0
 25 28  1  0  0  0  0
 25 49  1  0  0  0  0
 26 50  1  0  0  0  0
 26 51  1  0  0  0  0
 26 52  1  0  0  0  0
 27 29  1  0  0  0  0
 27 30  1  0  0  0  0
 28 30  2  0  0  0  0
 28 53  1  0  0  0  0
 29 54  1  0  0  0  0
 29 55  1  0  0  0  0
 29 56  1  0  0  0  0
 30 57  1  0  0  0  0
M  END
> <rseq>
1

> <mseq>
253

> <S>
-5.634418

> <rmsd_refine>
1.291583

> <E_conf>
-23.79827

> <E_score1>
-10.30032

> <E_refine>
-28.39916

> <E_score2>
-5.634418

>  <$File>
outputs/pdb_4j58_cleaned.pdb_2024_06_17__22_47_40_V2_BS398_MIN1_/SDF/sdf_db.sdf

> <Rec_index>
1

>  <PLIF_raw>
[[],[],[],[],[]]

>  <PLIF_ligidx>
[]

$$$$
253
  MOE2022           3D

 46 47  0  0  0  0  0  0  0  0999 V2000
    2.0340   15.4100   21.5530 O   0  0  0  0  0  0  0  0  0  0  0  0
    1.0380   15.9220   20.9640 C   0  0  0  0  0  0  0  0  0  0  0  0
   -0.0530   16.0860   21.5760 O   0  5  0  0  0  0  0  0  0  0  0  0
    1.1380   16.3050   19.5460 C   0  0  0  0  0  0  0  0  0  0  0  0
    0.1660   16.6290   18.8630 O   0  0  0  0  0  0  0  0  0  0  0  0
    2.3790   16.2820   18.9510 N   0  0  0  0  0  0  0  0  0  0  0  0
    2.6220   16.5860   17.5410 C   0  0  0  0  0  0  0  0  0  0  0  0
    3.2960   17.9260   17.2540 C   0  0  0  0  0  0  0  0  0  0  0  0
    3.4000   18.3880   15.9350 C   0  0  0  0  0  0  0  0  0  0  0  0
    3.9830   19.6400   15.6730 C   0  0  0  0  0  0  0  0  0  0  0  0
    3.8410   18.7040   18.2800 C   0  0  0  0  0  0  0  0  0  0  0  0
    4.0520   20.1400   14.3980 O   0  0  0  0  0  0  0  0  0  0  0  0
    4.5220   20.3990   16.7030 C   0  0  0  0  0  0  0  0  0  0  0  0
    4.4760   19.9320   18.0250 C   0  0  0  0  0  0  0  0  0  0  0  0
    5.0790   20.7040   19.1170 C   0  0  0  0  0  0  0  0  0  0  0  0
    2.9710   17.5240   14.8820 N   0  0  0  0  0  0  0  0  0  0  0  0
    2.0520   17.8210   13.9040 C   0  0  0  0  0  0  0  0  0  0  0  0
    5.2910   21.9410   18.9750 O   0  0  0  0  0  0  0  0  0  0  0  0
    1.7020   16.7010   12.9460 C   0  0  0  0  0  0  0  0  0  0  0  0
    5.3990   20.1280   20.1940 O   0  5  0  0  0  0  0  0  0  0  0  0
    2.7680   16.4140   11.8930 C   0  0  0  0  0  0  0  0  0  0  0  0
    1.5580   18.9300   13.8300 O   0  0  0  0  0  0  0  0  0  0  0  0
    3.4450   15.1920   11.9570 C   0  0  0  0  0  0  0  0  0  0  0  0
    3.0780   17.3290   10.8690 C   0  0  0  0  0  0  0  0  0  0  0  0
    2.3640   18.6710   10.7520 C   0  0  0  0  0  0  0  0  0  0  0  0
    4.4310   14.8890   11.0200 C   0  0  0  0  0  0  0  0  0  0  0  0
    5.0950   13.6990   11.0970 O   0  0  0  0  0  0  0  0  0  0  0  0
    4.0810   16.9900    9.9460 C   0  0  0  0  0  0  0  0  0  0  0  0
    4.4210   17.8490    8.9390 O   0  0  0  0  0  0  0  0  0  0  0  0
    4.7630   15.7810   10.0110 C   0  0  0  0  0  0  0  0  0  0  0  0
    3.1850   15.9960   19.5300 H   0  0  0  0  0  0  0  0  0  0  0  0
    3.2310   15.7960   17.1250 H   0  0  0  0  0  0  0  0  0  0  0  0
    1.6940   16.5330   16.9890 H   0  0  0  0  0  0  0  0  0  0  0  0
    3.7890   18.3630   19.2820 H   0  0  0  0  0  0  0  0  0  0  0  0
    3.4370   19.6360   13.8270 H   0  0  0  0  0  0  0  0  0  0  0  0
    4.9730   21.3330   16.4870 H   0  0  0  0  0  0  0  0  0  0  0  0
    3.2980   16.5470   14.9180 H   0  0  0  0  0  0  0  0  0  0  0  0
    1.5100   15.8050   13.5210 H   0  0  0  0  0  0  0  0  0  0  0  0
    0.7590   16.9130   12.4630 H   0  0  0  0  0  0  0  0  0  0  0  0
    3.2150   14.4910   12.7180 H   0  0  0  0  0  0  0  0  0  0  0  0
    2.8750   19.4220   11.3540 H   0  0  0  0  0  0  0  0  0  0  0  0
    2.3290   19.0250    9.7220 H   0  0  0  0  0  0  0  0  0  0  0  0
    1.3270   18.6110   11.0800 H   0  0  0  0  0  0  0  0  0  0  0  0
    4.7830   13.1650   11.8570 H   0  0  0  0  0  0  0  0  0  0  0  0
    3.8720   18.6560    8.9750 H   0  0  0  0  0  0  0  0  0  0  0  0
    5.5160   15.5440    9.3040 H   0  0  0  0  0  0  0  0  0  0  0  0
  1  2  2  0  0  0  0
  2  3  1  0  0  0  0
  2  4  1  0  0  0  0
  4  5  2  0  0  0  0
  4  6  1  0  0  0  0
  6  7  1  0  0  0  0
  6 31  1  0  0  0  0
  7  8  1  0  0  0  0
  7 32  1  0  0  0  0
  7 33  1  0  0  0  0
  8  9  2  0  0  0  0
  8 11  1  0  0  0  0
  9 10  1  0  0  0  0
  9 16  1  0  0  0  0
 10 12  1  0  0  0  0
 10 13  2  0  0  0  0
 11 14  2  0  0  0  0
 11 34  1  0  0  0  0
 12 35  1  0  0  0  0
 13 14  1  0  0  0  0
 13 36  1  0  0  0  0
 14 15  1  0  0  0  0
 15 18  2  0  0  0  0
 15 20  1  0  0  0  0
 16 17  1  0  0  0  0
 16 37  1  0  0  0  0
 17 19  1  0  0  0  0
 17 22  2  0  0  0  0
 19 21  1  0  0  0  0
 19 38  1  0  0  0  0
 19 39  1  0  0  0  0
 21 23  2  0  0  0  0
 21 24  1  0  0  0  0
 23 26  1  0  0  0  0
 23 40  1  0  0  0  0
 24 25  1  0  0  0  0
 24 28  2  0  0  0  0
 25 41  1  0  0  0  0
 25 42  1  0  0  0  0
 25 43  1  0  0  0  0
 26 27  1  0  0  0  0
 26 30  2  0  0  0  0
 27 44  1  0  0  0  0
 28 29  1  0  0  0  0
 28 30  1  0  0  0  0
 29 45  1  0  0  0  0
 30 46  1  0  0  0  0
M  CHG  1   3  -1
M  CHG  1  20  -1
M  END
> <rseq>
1

> <mseq>
254

> <S>
-6.088149

> <rmsd_refine>
1.329146

> <E_conf>
-89.84309

> <E_score1>
-10.93135

> <E_refine>
-43.50038

> <E_score2>
-6.088149

>  <$File>
outputs/pdb_4j58_cleaned.pdb_2024_06_17__22_47_40_V2_BS398_MIN1_/SDF/sdf_db.sdf

> <Rec_index>
1

>  <PLIF_raw>
[[6,27,3,20,1,1,3,3,18,20],[1617,1056,1206,1499,1206,1212,1206,1212,1872,1866],[110,70,81,101,81,81,81,81,125,125],[1,3,2,4,7,7,7,7,7,7],[0.8,3,6.9,2.6,1.810012283,1.870843057,5.211398229,1.833761546,1.382825322,0.5794683232]]

> <FP:PLIF>
3 4 17 18 24 25 11 12 26 13

>  <PLIF_ligidx>
[27,27,3,3,[1,1,3,3],3,20,20,6,[18,20]]

$$$$
254
  MOE2022           3D

 55 57  0  0  1  0  0  0  0  0999 V2000
    3.5020   17.6890   19.5240 O   0  0  0  0  0  0  0  0  0  0  0  0
    2.5640   17.2680   18.8320 C   0  0  0  0  0  0  0  0  0  0  0  0
    1.4850   16.4620   19.3330 C   0  0  0  0  0  0  0  0  0  0  0  0
    2.5450   17.5770   17.4690 N   0  0  0  0  0  0  0  0  0  0  0  0
    0.5050   16.0540   18.4770 C   0  0  0  0  0  0  0  0  0  0  0  0
    1.5300   17.0750   16.6370 C   0  0  0  0  0  0  0  0  0  0  0  0
    0.5570   16.3700   17.1370 N   0  0  0  0  0  0  0  0  0  0  0  0
    1.6260   17.3450   15.2110 C   0  0  0  0  0  0  0  0  0  0  0  0
    3.6030   18.4580   16.9090 C   0  0  0  0  0  0  0  0  0  0  0  0
    1.4680   16.0880   20.8080 C   0  0  0  0  0  0  0  0  0  0  0  0
   -0.6720   15.2050   18.9120 C   0  0  0  0  0  0  0  0  0  0  0  0
    3.3070   19.9710   16.9620 C   0  0  1  0  0  0  0  0  0  0  0  0
    4.3330   20.6740   17.8430 C   0  0  0  0  0  0  0  0  0  0  0  0
    0.8740   18.3720   14.6230 C   0  0  0  0  0  0  0  0  0  0  0  0
    3.5870   20.6310   15.6130 C   0  0  0  0  0  0  0  0  0  0  0  0
    1.0450   18.6940   13.2810 C   0  0  0  0  0  0  0  0  0  0  0  0
    1.9770   17.9910   12.5130 C   0  0  0  0  0  0  0  0  0  0  0  0
    2.1530   18.3710   11.2070 O   0  0  0  0  0  0  0  0  0  0  0  0
    2.5080   16.6120   14.3950 C   0  0  0  0  0  0  0  0  0  0  0  0
    3.2000   15.5610   14.9210 O   0  0  0  0  0  0  0  0  0  0  0  0
    4.9950   20.9890   15.6040 O   0  0  0  0  0  0  0  0  0  0  0  0
    3.4780   18.6310   10.6540 C   0  0  0  0  0  0  0  0  0  0  0  0
    2.7070   16.9360   13.0580 C   0  0  0  0  0  0  0  0  0  0  0  0
    5.4800   20.9470   16.8950 C   0  0  0  0  0  0  0  0  0  0  0  0
    4.0390   17.4930    9.8260 C   0  0  0  0  0  0  0  0  0  0  0  0
    6.7870   21.1050   17.1690 C   0  0  0  0  0  0  0  0  0  0  0  0
    4.8920   16.7510   10.3620 O   0  5  0  0  0  0  0  0  0  0  0  0
    3.6510   17.3890    8.6430 O   0  0  0  0  0  0  0  0  0  0  0  0
    7.3710   21.0390   18.5630 C   0  0  0  0  0  0  0  0  0  0  0  0
    7.1940   22.3540   19.3260 C   0  0  0  0  0  0  0  0  0  0  0  0
    4.5350   18.2880   17.4190 H   0  0  0  0  0  0  0  0  0  0  0  0
    3.8660   18.1680   15.9040 H   0  0  0  0  0  0  0  0  0  0  0  0
    0.7100   16.6470   21.3380 H   0  0  0  0  0  0  0  0  0  0  0  0
    1.2650   15.0360   20.9400 H   0  0  0  0  0  0  0  0  0  0  0  0
    2.4140   16.2780   21.2960 H   0  0  0  0  0  0  0  0  0  0  0  0
   -1.0920   15.5460   19.8480 H   0  0  0  0  0  0  0  0  0  0  0  0
   -1.4700   15.2260   18.1810 H   0  0  0  0  0  0  0  0  0  0  0  0
   -0.3790   14.1710   19.0350 H   0  0  0  0  0  0  0  0  0  0  0  0
    2.2880   20.1520   17.3080 H   0  0  0  0  0  0  0  0  0  0  0  0
    3.9340   21.6140   18.2010 H   0  0  0  0  0  0  0  0  0  0  0  0
    4.6160   20.0970   18.7130 H   0  0  0  0  0  0  0  0  0  0  0  0
    0.1790   18.9170   15.2100 H   0  0  0  0  0  0  0  0  0  0  0  0
    3.3580   19.9660   14.7800 H   0  0  0  0  0  0  0  0  0  0  0  0
    3.0000   21.5460   15.5270 H   0  0  0  0  0  0  0  0  0  0  0  0
    0.4810   19.4760   12.8410 H   0  0  0  0  0  0  0  0  0  0  0  0
    2.8630   15.3390   15.8130 H   0  0  0  0  0  0  0  0  0  0  0  0
    3.3940   19.5100   10.0310 H   0  0  0  0  0  0  0  0  0  0  0  0
    4.1450   18.8730   11.4670 H   0  0  0  0  0  0  0  0  0  0  0  0
    3.3890   16.3830   12.4660 H   0  0  0  0  0  0  0  0  0  0  0  0
    7.4840   21.2990   16.3950 H   0  0  0  0  0  0  0  0  0  0  0  0
    6.9230   20.2270   19.1200 H   0  0  0  0  0  0  0  0  0  0  0  0
    8.4230   20.7980   18.4970 H   0  0  0  0  0  0  0  0  0  0  0  0
    7.6720   23.1690   18.7830 H   0  0  0  0  0  0  0  0  0  0  0  0
    6.1360   22.5920   19.4350 H   0  0  0  0  0  0  0  0  0  0  0  0
    7.6400   22.2830   20.3170 H   0  0  0  0  0  0  0  0  0  0  0  0
  1  2  2  0  0  0  0
  2  3  1  0  0  0  0
  2  4  1  0  0  0  0
  3  5  2  0  0  0  0
  3 10  1  0  0  0  0
  4  6  1  0  0  0  0
  4  9  1  0  0  0  0
  5  7  1  0  0  0  0
  5 11  1  0  0  0  0
  6  7  2  0  0  0  0
  6  8  1  0  0  0  0
  8 14  1  0  0  0  0
  8 19  2  0  0  0  0
  9 12  1  0  0  0  0
  9 31  1  0  0  0  0
  9 32  1  0  0  0  0
 10 33  1  0  0  0  0
 10 34  1  0  0  0  0
 10 35  1  0  0  0  0
 11 36  1  0  0  0  0
 11 37  1  0  0  0  0
 11 38  1  0  0  0  0
 12 13  1  0  0  0  0
 12 15  1  0  0  0  0
 12 39  1  0  0  0  0
 13 24  1  0  0  0  0
 13 40  1  0  0  0  0
 13 41  1  0  0  0  0
 14 16  2  0  0  0  0
 14 42  1  0  0  0  0
 15 21  1  0  0  0  0
 15 43  1  0  0  0  0
 15 44  1  0  0  0  0
 16 17  1  0  0  0  0
 16 45  1  0  0  0  0
 17 18  1  0  0  0  0
 17 23  2  0  0  0  0
 18 22  1  0  0  0  0
 19 20  1  0  0  0  0
 19 23  1  0  0  0  0
 20 46  1  0  0  0  0
 21 24  1  0  0  0  0
 22 25  1  0  0  0  0
 22 47  1  0  0  0  0
 22 48  1  0  0  0  0
 23 49  1  0  0  0  0
 24 26  2  0  0  0  0
 25 27  1  0  0  0  0
 25 28  2  0  0  0  0
 26 29  1  0  0  0  0
 26 50  1  0  0  0  0
 29 30  1  0  0  0  0
 29 51  1  0  0  0  0
 29 52  1  0  0  0  0
 30 53  1  0  0  0  0
 30 54  1  0  0  0  0
 30 55  1  0  0  0  0
M  CHG  1  27  -1
M  END
> <rseq>
1

> <mseq>
255

> <S>
-6.329044

> <rmsd_refine>
0.7492242

> <E_conf>
-103.104

> <E_score1>
-13.50651

> <E_refine>
-35.04585

> <E_score2>
-6.329044

>  <$File>
outputs/pdb_4j58_cleaned.pdb_2024_06_17__22_47_40_V2_BS398_MIN1_/SDF/sdf_db.sdf

> <Rec_index>
1

>  <PLIF_raw>
[[27,27,27,2,4,6,7,5,3],[823,823,829,954,954,954,954,954,954],[54,54,54,62,62,62,62,62,62],[2,7,7,10,10,10,10,10,10],[6.2,5.331617933,1.478493143,0.7,0.7,0.7,0.7,0.7,0.7]]

> <FP:PLIF>
6 19 1 16 21

>  <PLIF_ligidx>
[27,27,[27,27],27,[2,4,6,7,5,3]]

$$$$
255
  MOE2022           3D

 49 51  0  0  1  0  0  0  0  0999 V2000
    3.8070   18.2780   18.9740 O   0  0  0  0  0  0  0  0  0  0  0  0
    2.9300   17.9000   18.1860 C   0  0  0  0  0  0  0  0  0  0  0  0
    1.8290   17.0480   18.5470 C   0  0  0  0  0  0  0  0  0  0  0  0
    3.0110   18.3030   16.8490 N   0  0  0  0  0  0  0  0  0  0  0  0
    0.9320   16.6760   17.5910 C   0  0  0  0  0  0  0  0  0  0  0  0
    2.0630   17.8500   15.9120 C   0  0  0  0  0  0  0  0  0  0  0  0
    1.0770   17.0900   16.2850 N   0  0  0  0  0  0  0  0  0  0  0  0
    2.2320   18.2320   14.5170 C   0  0  0  0  0  0  0  0  0  0  0  0
    4.1120   19.2140   16.4230 C   0  0  0  0  0  0  0  0  0  0  0  0
    1.6980   16.5730   19.9870 C   0  0  0  0  0  0  0  0  0  0  0  0
   -0.2740   15.8030   17.8790 C   0  0  0  0  0  0  0  0  0  0  0  0
    3.7700   20.7200   16.4590 C   0  0  1  0  0  0  0  0  0  0  0  0
    3.7980   21.3290   17.8720 C   0  0  0  0  0  0  0  0  0  0  0  0
    1.6890   19.4270   14.0250 C   0  0  0  0  0  0  0  0  0  0  0  0
    4.7630   21.5860   15.6930 C   0  0  0  0  0  0  0  0  0  0  0  0
    1.9270   19.8230   12.7160 C   0  0  0  0  0  0  0  0  0  0  0  0
    2.6950   19.0140   11.8810 C   0  0  0  0  0  0  0  0  0  0  0  0
    5.2420   21.3000   14.5990 O   0  0  0  0  0  0  0  0  0  0  0  0
    2.9590   17.4050   13.6500 C   0  0  0  0  0  0  0  0  0  0  0  0
    4.2410   22.7780   17.6000 C   0  0  1  0  0  0  0  0  0  0  0  0
    3.1910   17.7880   12.3360 C   0  0  0  0  0  0  0  0  0  0  0  0
    4.9880   23.4260   18.7750 C   0  0  0  0  0  0  0  0  0  0  0  0
    4.4570   24.4260   19.3070 O   0  0  0  0  0  0  0  0  0  0  0  0
    6.0730   22.9170   19.1380 O   0  5  0  0  0  0  0  0  0  0  0  0
    5.0470   22.6720   16.3960 N   0  0  0  0  0  0  0  0  0  0  0  0
    2.9490   19.4750   10.6100 O   0  0  0  0  0  0  0  0  0  0  0  0
    3.9350   18.8990    9.7080 C   0  0  0  0  0  0  0  0  0  0  0  0
    4.3910   19.8690    8.6410 C   0  0  0  0  0  0  0  0  0  0  0  0
    5.1900   20.7710    8.9780 O   0  5  0  0  0  0  0  0  0  0  0  0
    3.9740   19.6890    7.4760 O   0  0  0  0  0  0  0  0  0  0  0  0
    5.0030   19.0460   17.0100 H   0  0  0  0  0  0  0  0  0  0  0  0
    4.4320   18.9560   15.4250 H   0  0  0  0  0  0  0  0  0  0  0  0
    0.7540   16.8800   20.4130 H   0  0  0  0  0  0  0  0  0  0  0  0
    1.7560   15.4950   20.0440 H   0  0  0  0  0  0  0  0  0  0  0  0
    2.4780   16.9580   20.6280 H   0  0  0  0  0  0  0  0  0  0  0  0
   -1.0590   16.3730   18.3550 H   0  0  0  0  0  0  0  0  0  0  0  0
   -0.6860   15.3810   16.9720 H   0  0  0  0  0  0  0  0  0  0  0  0
   -0.0310   14.9730   18.5270 H   0  0  0  0  0  0  0  0  0  0  0  0
    2.7830   20.8800   16.0280 H   0  0  0  0  0  0  0  0  0  0  0  0
    2.8170   21.2970   18.3430 H   0  0  0  0  0  0  0  0  0  0  0  0
    4.5440   20.8250   18.4880 H   0  0  0  0  0  0  0  0  0  0  0  0
    1.1010   20.0390   14.6600 H   0  0  0  0  0  0  0  0  0  0  0  0
    1.5350   20.7380   12.3530 H   0  0  0  0  0  0  0  0  0  0  0  0
    3.3390   16.4810   14.0040 H   0  0  0  0  0  0  0  0  0  0  0  0
    3.3590   23.3770   17.3690 H   0  0  0  0  0  0  0  0  0  0  0  0
    3.7390   17.1520   11.6910 H   0  0  0  0  0  0  0  0  0  0  0  0
    5.7000   23.3850   16.1110 H   0  0  0  0  0  0  0  0  0  0  0  0
    4.7910   18.6000   10.2940 H   0  0  0  0  0  0  0  0  0  0  0  0
    3.5100   18.0130    9.2580 H   0  0  0  0  0  0  0  0  0  0  0  0
  1  2  2  0  0  0  0
  2  3  1  0  0  0  0
  2  4  1  0  0  0  0
  3  5  2  0  0  0  0
  3 10  1  0  0  0  0
  4  6  1  0  0  0  0
  4  9  1  0  0  0  0
  5  7  1  0  0  0  0
  5 11  1  0  0  0  0
  6  7  2  0  0  0  0
  6  8  1  0  0  0  0
  8 14  1  0  0  0  0
  8 19  2  0  0  0  0
  9 12  1  0  0  0  0
  9 31  1  0  0  0  0
  9 32  1  0  0  0  0
 10 33  1  0  0  0  0
 10 34  1  0  0  0  0
 10 35  1  0  0  0  0
 11 36  1  0  0  0  0
 11 37  1  0  0  0  0
 11 38  1  0  0  0  0
 12 13  1  0  0  0  0
 12 15  1  0  0  0  0
 12 39  1  0  0  0  0
 13 20  1  0  0  0  0
 13 40  1  0  0  0  0
 13 41  1  0  0  0  0
 14 16  2  0  0  0  0
 14 42  1  0  0  0  0
 15 18  2  0  0  0  0
 15 25  1  0  0  0  0
 16 17  1  0  0  0  0
 16 43  1  0  0  0  0
 17 21  2  0  0  0  0
 17 26  1  0  0  0  0
 19 21  1  0  0  0  0
 19 44  1  0  0  0  0
 20 22  1  0  0  0  0
 20 25  1  0  0  0  0
 20 45  1  0  0  0  0
 21 46  1  0  0  0  0
 22 23  2  0  0  0  0
 22 24  1  0  0  0  0
 25 47  1  0  0  0  0
 26 27  1  0  0  0  0
 27 28  1  0  0  0  0
 27 48  1  0  0  0  0
 27 49  1  0  0  0  0
 28 29  1  0  0  0  0
 28 30  2  0  0  0  0
M  CHG  1  24  -1
M  CHG  1  29  -1
M  END
> <rseq>
1

> <mseq>
256

> <S>
-5.349795

> <rmsd_refine>
1.624697

> <E_conf>
-131.8148

> <E_score1>
-11.11743

> <E_refine>
-30.13703

> <E_score2>
-5.349795

>  <$File>
outputs/pdb_4j58_cleaned.pdb_2024_06_17__22_47_40_V2_BS398_MIN1_/SDF/sdf_db.sdf

> <Rec_index>
1

>  <PLIF_raw>
[[23,23,24,29,2,4,6,7,5,3],[1872,1872,1872,829,954,954,954,954,954,954],[125,125,125,54,62,62,62,62,62,62],[2,7,7,7,10,10,10,10,10,10],[8.4,4.87241852,3.840678555,1.109624187,1.6,1.6,1.6,1.6,1.6,1.6]]

> <FP:PLIF>
1 21 30 29 46 13 31

>  <PLIF_ligidx>
[29,[2,4,6,7,5,3],[2,4,6,7,5,3],23,23,[23,24],[23,24]]

$$$$
256
  MOE2022           3D

 53 55  0  0  1  0  0  0  0  0999 V2000
    2.6260   16.3550   20.7530 C   0  0  0  0  0  0  0  0  0  0  0  0
    1.3830   15.8690   21.1310 C   0  0  0  0  0  0  0  0  0  0  0  0
    2.7880   16.9820   19.5230 C   0  0  0  0  0  0  0  0  0  0  0  0
    0.3010   15.9980   20.2680 C   0  0  0  0  0  0  0  0  0  0  0  0
    0.4670   16.6120   19.0300 C   0  0  0  0  0  0  0  0  0  0  0  0
    1.7120   17.1110   18.6420 C   0  0  0  0  0  0  0  0  0  0  0  0
    1.8520   17.7650   17.2660 C   0  0  1  0  0  0  0  0  0  0  0  0
    3.1580   18.4110   17.0520 N   0  0  0  0  0  0  0  0  0  0  0  0
    1.5320   16.7450   16.1470 C   0  0  0  0  0  0  0  0  0  0  0  0
    3.3770   19.7200   17.2400 C   0  0  0  0  0  0  0  0  0  0  0  0
    1.8840   17.1290   14.7470 N   0  0  0  0  0  0  0  0  0  0  0  0
    1.4180   18.3380   14.1980 C   0  0  0  0  0  0  0  0  0  0  0  0
    0.6020   19.0010   14.8460 O   0  0  0  0  0  0  0  0  0  0  0  0
    2.6070   16.2120   13.9520 C   0  0  0  0  0  0  0  0  0  0  0  0
    4.7980   20.2270   16.9810 C   0  0  0  0  0  0  0  0  0  0  0  0
    2.9210   15.1040   14.3890 O   0  0  0  0  0  0  0  0  0  0  0  0
    2.9610   16.5860   12.6480 N   0  0  0  0  0  0  0  0  0  0  0  0
    1.9160   18.7270   12.9250 C   0  0  0  0  0  0  0  0  0  0  0  0
    2.6950   17.8820   12.1910 C   0  0  0  0  0  0  0  0  0  0  0  0
    3.2720   18.2650   10.9790 N   0  0  0  0  0  0  0  0  0  0  0  0
    2.5000   20.5120   17.5780 O   0  0  0  0  0  0  0  0  0  0  0  0
    3.4980   15.5690   11.7190 C   0  0  0  0  0  0  0  0  0  0  0  0
    4.3580   16.1600   10.6230 C   0  0  0  0  0  0  0  0  0  0  0  0
    5.3370   15.3110    9.9670 C   0  0  0  0  0  0  0  0  0  0  0  0
    4.1720   17.4580   10.2790 C   0  0  0  0  0  0  0  0  0  0  0  0
    5.3750   14.0780   10.2220 O   0  5  0  0  0  0  0  0  0  0  0  0
    5.4410   20.9170   18.2020 C   0  0  0  0  0  0  0  0  0  0  0  0
    6.1700   15.8210    9.1700 O   0  0  0  0  0  0  0  0  0  0  0  0
    5.6680   19.9390   19.3630 C   0  0  0  0  0  0  0  0  0  0  0  0
    6.7880   21.5400   17.8030 C   0  0  0  0  0  0  0  0  0  0  0  0
    3.4530   16.2470   21.4030 H   0  0  0  0  0  0  0  0  0  0  0  0
    1.2680   15.4060   22.0740 H   0  0  0  0  0  0  0  0  0  0  0  0
    3.7410   17.3610   19.2710 H   0  0  0  0  0  0  0  0  0  0  0  0
   -0.6520   15.6320   20.5510 H   0  0  0  0  0  0  0  0  0  0  0  0
   -0.3650   16.7010   18.3800 H   0  0  0  0  0  0  0  0  0  0  0  0
    1.0900   18.5300   17.2180 H   0  0  0  0  0  0  0  0  0  0  0  0
    3.9250   17.8290   16.7570 H   0  0  0  0  0  0  0  0  0  0  0  0
    2.0320   15.8280   16.4190 H   0  0  0  0  0  0  0  0  0  0  0  0
    0.4810   16.4970   16.1870 H   0  0  0  0  0  0  0  0  0  0  0  0
    5.4290   19.3990   16.6660 H   0  0  0  0  0  0  0  0  0  0  0  0
    4.7480   20.9360   16.1540 H   0  0  0  0  0  0  0  0  0  0  0  0
    1.6660   19.6880   12.5580 H   0  0  0  0  0  0  0  0  0  0  0  0
    3.0990   19.2230   10.6350 H   0  0  0  0  0  0  0  0  0  0  0  0
    4.0550   14.8110   12.2510 H   0  0  0  0  0  0  0  0  0  0  0  0
    2.6760   15.0360   11.2620 H   0  0  0  0  0  0  0  0  0  0  0  0
    4.6850   17.9460    9.4890 H   0  0  0  0  0  0  0  0  0  0  0  0
    4.7800   21.7160   18.5430 H   0  0  0  0  0  0  0  0  0  0  0  0
    6.1060   20.4660   20.2110 H   0  0  0  0  0  0  0  0  0  0  0  0
    4.7210   19.5030   19.6750 H   0  0  0  0  0  0  0  0  0  0  0  0
    6.3460   19.1440   19.0540 H   0  0  0  0  0  0  0  0  0  0  0  0
    7.4740   20.7650   17.4560 H   0  0  0  0  0  0  0  0  0  0  0  0
    6.6380   22.2680   17.0050 H   0  0  0  0  0  0  0  0  0  0  0  0
    7.2300   22.0490   18.6600 H   0  0  0  0  0  0  0  0  0  0  0  0
  1  2  2  0  0  0  0
  1  3  1  0  0  0  0
  1 31  1  0  0  0  0
  2  4  1  0  0  0  0
  2 32  1  0  0  0  0
  3  6  2  0  0  0  0
  3 33  1  0  0  0  0
  4  5  2  0  0  0  0
  4 34  1  0  0  0  0
  5  6  1  0  0  0  0
  5 35  1  0  0  0  0
  6  7  1  0  0  0  0
  7  8  1  0  0  0  0
  7  9  1  0  0  0  0
  7 36  1  0  0  0  0
  8 10  1  0  0  0  0
  8 37  1  0  0  0  0
  9 11  1  0  0  0  0
  9 38  1  0  0  0  0
  9 39  1  0  0  0  0
 10 15  1  0  0  0  0
 10 21  2  0  0  0  0
 11 12  1  0  0  0  0
 11 14  1  0  0  0  0
 12 13  2  0  0  0  0
 12 18  1  0  0  0  0
 14 16  2  0  0  0  0
 14 17  1  0  0  0  0
 15 27  1  0  0  0  0
 15 40  1  0  0  0  0
 15 41  1  0  0  0  0
 17 19  1  0  0  0  0
 17 22  1  0  0  0  0
 18 19  2  0  0  0  0
 18 42  1  0  0  0  0
 19 20  1  0  0  0  0
 20 25  1  0  0  0  0
 20 43  1  0  0  0  0
 22 23  1  0  0  0  0
 22 44  1  0  0  0  0
 22 45  1  0  0  0  0
 23 24  1  0  0  0  0
 23 25  2  0  0  0  0
 24 26  1  0  0  0  0
 24 28  2  0  0  0  0
 25 46  1  0  0  0  0
 27 29  1  0  0  0  0
 27 30  1  0  0  0  0
 27 47  1  0  0  0  0
 29 48  1  0  0  0  0
 29 49  1  0  0  0  0
 29 50  1  0  0  0  0
 30 51  1  0  0  0  0
 30 52  1  0  0  0  0
 30 53  1  0  0  0  0
M  CHG  1  26  -1
M  END
> <rseq>
1

> <mseq>
257

> <S>
-6.722915

> <rmsd_refine>
0.9535149

> <E_conf>
-293.3516

> <E_score1>
-10.02629

> <E_refine>
-33.17129

> <E_score2>
-6.722915

>  <$File>
outputs/pdb_4j58_cleaned.pdb_2024_06_17__22_47_40_V2_BS398_MIN1_/SDF/sdf_db.sdf

> <Rec_index>
1

>  <PLIF_raw>
[28,823,54,7,0.8559065457]

> <FP:PLIF>
1

>  <PLIF_ligidx>
28

$$$$
257
  MOE2022           3D

 55 56  0  0  1  0  0  0  0  0999 V2000
    4.7760   14.4690   10.7280 C   0  0  0  0  0  0  0  0  0  0  0  0
    3.7850   14.8120   11.6380 C   0  0  0  0  0  0  0  0  0  0  0  0
    3.2400   16.1040   11.6250 C   0  0  0  0  0  0  0  0  0  0  0  0
    5.3410   13.2200   10.7860 O   0  0  0  0  0  0  0  0  0  0  0  0
    3.6720   17.0220   10.6500 C   0  0  0  0  0  0  0  0  0  0  0  0
    2.2650   16.4780   12.6430 C   0  0  0  0  0  0  0  0  0  0  0  0
    2.2230   17.7910   13.0430 N   0  0  0  0  0  0  0  0  0  0  0  0
    1.5220   15.6680   13.1930 O   0  0  0  0  0  0  0  0  0  0  0  0
    5.2060   15.3940    9.7740 C   0  0  0  0  0  0  0  0  0  0  0  0
    1.6550   18.1910   14.3410 C   0  0  1  0  0  0  0  0  0  0  0  0
    2.4930   17.7460   15.5320 C   0  0  0  0  0  0  0  0  0  0  0  0
    1.3830   19.6830   14.4650 C   0  0  0  0  0  0  0  0  0  0  0  0
    3.5440   17.1120   15.4080 O   0  0  0  0  0  0  0  0  0  0  0  0
    1.6120   20.4700   13.5450 O   0  0  0  0  0  0  0  0  0  0  0  0
    0.9610   20.0940   15.6800 N   0  0  0  0  0  0  0  0  0  0  0  0
    6.1770   15.0570    8.8860 O   0  0  0  0  0  0  0  0  0  0  0  0
    2.0660   18.1810   16.7310 N   0  0  0  0  0  0  0  0  0  0  0  0
    4.6490   16.6680    9.7250 C   0  0  0  0  0  0  0  0  0  0  0  0
    2.8000   17.8330   17.9420 C   0  0  1  0  0  0  0  0  0  0  0  0
    0.9760   19.1640   16.8160 C   0  0  0  0  0  0  0  0  0  0  0  0
    3.9760   18.7910   18.2290 C   0  0  0  0  0  0  0  0  0  0  0  0
    0.6420   21.4950   15.9600 C   0  0  0  0  0  0  0  0  0  0  0  0
    1.8980   17.7180   19.0660 O   0  0  0  0  0  0  0  0  0  0  0  0
    2.2000   16.6840   20.0290 C   0  0  0  0  0  0  0  0  0  0  0  0
    3.6480   20.2020   18.1290 O   0  0  0  0  0  0  0  0  0  0  0  0
    4.4080   21.1440   18.7220 C   0  0  0  0  0  0  0  0  0  0  0  0
    4.0130   22.6090   18.4970 C   0  0  2  0  0  0  0  0  0  0  0  0
    5.3760   20.8390   19.4250 O   0  0  0  0  0  0  0  0  0  0  0  0
    5.2340   23.4890   18.1940 C   0  0  0  0  0  0  0  0  0  0  0  0
    3.2480   23.1520   19.6420 N   0  0  0  0  0  0  0  0  0  0  0  0
    5.9540   23.0020   17.0770 O   0  0  0  0  0  0  0  0  0  0  0  0
    3.4560   14.1050   12.3560 H   0  0  0  0  0  0  0  0  0  0  0  0
    4.9950   12.7240   11.5570 H   0  0  0  0  0  0  0  0  0  0  0  0
    3.2520   17.9940   10.6120 H   0  0  0  0  0  0  0  0  0  0  0  0
    2.8860   18.4530   12.6140 H   0  0  0  0  0  0  0  0  0  0  0  0
    0.6920   17.7110   14.4600 H   0  0  0  0  0  0  0  0  0  0  0  0
    6.4540   14.1330    9.0500 H   0  0  0  0  0  0  0  0  0  0  0  0
    4.9660   17.3610    8.9900 H   0  0  0  0  0  0  0  0  0  0  0  0
    3.2160   16.8440   17.8070 H   0  0  0  0  0  0  0  0  0  0  0  0
    1.0680   19.7240   17.7370 H   0  0  0  0  0  0  0  0  0  0  0  0
    0.0260   18.6510   16.8870 H   0  0  0  0  0  0  0  0  0  0  0  0
    4.3700   18.5780   19.2220 H   0  0  0  0  0  0  0  0  0  0  0  0
    4.7580   18.6090   17.4950 H   0  0  0  0  0  0  0  0  0  0  0  0
   -0.1280   21.5810   16.7150 H   0  0  0  0  0  0  0  0  0  0  0  0
    1.5120   22.0280   16.3170 H   0  0  0  0  0  0  0  0  0  0  0  0
    0.2800   22.0110   15.0800 H   0  0  0  0  0  0  0  0  0  0  0  0
    3.2000   16.8300   20.4390 H   0  0  0  0  0  0  0  0  0  0  0  0
    1.4770   16.7210   20.8430 H   0  0  0  0  0  0  0  0  0  0  0  0
    2.1450   15.7050   19.5520 H   0  0  0  0  0  0  0  0  0  0  0  0
    3.3460   22.6480   17.6360 H   0  0  0  0  0  0  0  0  0  0  0  0
    4.8980   24.5040   17.9800 H   0  0  0  0  0  0  0  0  0  0  0  0
    5.8940   23.5130   19.0620 H   0  0  0  0  0  0  0  0  0  0  0  0
    2.8270   24.0330   19.3820 H   0  0  0  0  0  0  0  0  0  0  0  0
    2.5170   22.4980   19.8950 H   0  0  0  0  0  0  0  0  0  0  0  0
    6.4330   22.2110   17.3410 H   0  0  0  0  0  0  0  0  0  0  0  0
  1  2  1  0  0  0  0
  1  4  1  0  0  0  0
  1  9  2  0  0  0  0
  2  3  2  0  0  0  0
  2 32  1  0  0  0  0
  3  5  1  0  0  0  0
  3  6  1  0  0  0  0
  4 33  1  0  0  0  0
  5 18  2  0  0  0  0
  5 34  1  0  0  0  0
  6  7  1  0  0  0  0
  6  8  2  0  0  0  0
  7 10  1  0  0  0  0
  7 35  1  0  0  0  0
  9 16  1  0  0  0  0
  9 18  1  0  0  0  0
 10 11  1  0  0  0  0
 10 12  1  0  0  0  0
 10 36  1  0  0  0  0
 11 13  2  0  0  0  0
 11 17  1  0  0  0  0
 12 14  2  0  0  0  0
 12 15  1  0  0  0  0
 15 20  1  0  0  0  0
 15 22  1  0  0  0  0
 16 37  1  0  0  0  0
 17 19  1  0  0  0  0
 17 20  1  0  0  0  0
 18 38  1  0  0  0  0
 19 21  1  0  0  0  0
 19 23  1  0  0  0  0
 19 39  1  0  0  0  0
 20 40  1  0  0  0  0
 20 41  1  0  0  0  0
 21 25  1  0  0  0  0
 21 42  1  0  0  0  0
 21 43  1  0  0  0  0
 22 44  1  0  0  0  0
 22 45  1  0  0  0  0
 22 46  1  0  0  0  0
 23 24  1  0  0  0  0
 24 47  1  0  0  0  0
 24 48  1  0  0  0  0
 24 49  1  0  0  0  0
 25 26  1  0  0  0  0
 26 27  1  0  0  0  0
 26 28  2  0  0  0  0
 27 29  1  0  0  0  0
 27 30  1  0  0  0  0
 27 50  1  0  0  0  0
 29 31  1  0  0  0  0
 29 51  1  0  0  0  0
 29 52  1  0  0  0  0
 30 53  1  0  0  0  0
 30 54  1  0  0  0  0
 31 55  1  0  0  0  0
M  END
> <rseq>
1

> <mseq>
258

> <S>
-5.889961

> <rmsd_refine>
1.649834

> <E_conf>
12.29398

> <E_score1>
-11.13298

> <E_refine>
-33.71212

> <E_score2>
-5.889961

>  <$File>
outputs/pdb_4j58_cleaned.pdb_2024_06_17__22_47_40_V2_BS398_MIN1_/SDF/sdf_db.sdf

> <Rec_index>
1

>  <PLIF_raw>
[4,1056,70,3,2.6]

> <FP:PLIF>
3 4

>  <PLIF_ligidx>
[4,4]

$$$$
258
  MOE2022           3D

 55 59  0  0  1  0  0  0  0  0999 V2000
    5.4750   15.2820    9.5970 C   0  0  0  0  0  0  0  0  0  0  0  0
    5.1020   15.9590    8.4430 C   0  0  0  0  0  0  0  0  0  0  0  0
    4.5270   15.0980   10.5950 C   0  0  0  0  0  0  0  0  0  0  0  0
    6.0100   16.1450    7.4720 F   0  0  0  0  0  0  0  0  0  0  0  0
    3.2210   15.5980   10.4480 C   0  0  0  0  0  0  0  0  0  0  0  0
    2.2430   15.4530   11.5070 C   0  0  0  0  0  0  0  0  0  0  0  0
    3.8170   16.4490    8.2540 C   0  0  0  0  0  0  0  0  0  0  0  0
    2.8780   16.2630    9.2590 C   0  0  0  0  0  0  0  0  0  0  0  0
    2.5760   15.5910   12.8420 N   0  0  0  0  0  0  0  0  0  0  0  0
    0.8900   15.2230   11.4690 C   0  0  0  0  0  0  0  0  0  0  0  0
    1.4540   15.4670   13.6140 C   0  0  0  0  0  0  0  0  0  0  0  0
    1.4930   15.5930   15.0260 N   0  0  0  0  0  0  0  0  0  0  0  0
    0.3980   15.2260   12.7760 C   0  0  0  0  0  0  0  0  0  0  0  0
    0.3530   16.2670   15.6430 C   0  0  0  0  0  0  0  0  0  0  0  0
    2.6640   16.2090   15.6490 C   0  0  0  0  0  0  0  0  0  0  0  0
    2.3460   17.6910   15.9530 C   0  0  2  0  0  0  0  0  0  0  0  0
    3.1240   18.1430   17.2140 C   0  0  1  0  0  0  0  0  0  0  0  0
    0.8070   17.6500   16.1470 C   0  0  2  0  0  0  0  0  0  0  0  0
    2.7860   18.5610   14.7480 C   0  0  0  0  0  0  0  0  0  0  0  0
    3.8290   18.2250   14.1440 O   0  5  0  0  0  0  0  0  0  0  0  0
    3.0350   19.5880   17.4010 O   0  0  0  0  0  0  0  0  0  0  0  0
    4.0190   20.3960   17.9500 C   0  0  0  0  0  0  0  0  0  0  0  0
    3.8970   21.7700   17.7580 C   0  0  0  0  0  0  0  0  0  0  0  0
    4.8680   22.6250   18.2710 C   0  0  0  0  0  0  0  0  0  0  0  0
    5.0980   19.8730   18.6690 C   0  0  0  0  0  0  0  0  0  0  0  0
    6.0650   20.7340   19.1780 C   0  0  0  0  0  0  0  0  0  0  0  0
    5.9540   22.1080   18.9760 C   0  0  0  0  0  0  0  0  0  0  0  0
    2.6830   17.4110   18.5040 C   0  0  0  0  0  0  0  0  0  0  0  0
    2.1240   19.5840   14.4660 O   0  0  0  0  0  0  0  0  0  0  0  0
    1.1710   17.1540   18.6230 C   0  0  0  0  0  0  0  0  0  0  0  0
    0.3440   17.9280   17.5870 C   0  0  0  0  0  0  0  0  0  0  0  0
    6.4610   14.9100    9.7100 H   0  0  0  0  0  0  0  0  0  0  0  0
    4.7890   14.5670   11.4730 H   0  0  0  0  0  0  0  0  0  0  0  0
    3.5600   16.9570    7.3610 H   0  0  0  0  0  0  0  0  0  0  0  0
    1.8940   16.6370    9.1330 H   0  0  0  0  0  0  0  0  0  0  0  0
    3.5140   15.8150   13.2100 H   0  0  0  0  0  0  0  0  0  0  0  0
    0.3200   15.0750   10.5890 H   0  0  0  0  0  0  0  0  0  0  0  0
   -0.6070   15.0750   13.0710 H   0  0  0  0  0  0  0  0  0  0  0  0
   -0.4810   16.3690   14.9640 H   0  0  0  0  0  0  0  0  0  0  0  0
   -0.0050   15.6570   16.4610 H   0  0  0  0  0  0  0  0  0  0  0  0
    2.8490   15.6740   16.5660 H   0  0  0  0  0  0  0  0  0  0  0  0
    3.5740   16.0640   15.0860 H   0  0  0  0  0  0  0  0  0  0  0  0
    4.1750   17.9450   17.0240 H   0  0  0  0  0  0  0  0  0  0  0  0
    0.3130   18.3740   15.4990 H   0  0  0  0  0  0  0  0  0  0  0  0
    3.0720   22.1570   17.2180 H   0  0  0  0  0  0  0  0  0  0  0  0
    4.7840   23.6700   18.1200 H   0  0  0  0  0  0  0  0  0  0  0  0
    5.1870   18.8340   18.8330 H   0  0  0  0  0  0  0  0  0  0  0  0
    6.8900   20.3450   19.7180 H   0  0  0  0  0  0  0  0  0  0  0  0
    6.6970   22.7610   19.3570 H   0  0  0  0  0  0  0  0  0  0  0  0
    3.1850   16.4470   18.5620 H   0  0  0  0  0  0  0  0  0  0  0  0
    3.0160   17.9810   19.3680 H   0  0  0  0  0  0  0  0  0  0  0  0
    0.9880   16.0870   18.4910 H   0  0  0  0  0  0  0  0  0  0  0  0
    0.8410   17.4240   19.6250 H   0  0  0  0  0  0  0  0  0  0  0  0
    0.4440   18.9960   17.7820 H   0  0  0  0  0  0  0  0  0  0  0  0
   -0.7090   17.6660   17.6860 H   0  0  0  0  0  0  0  0  0  0  0  0
  1  2  2  0  0  0  0
  1  3  1  0  0  0  0
  1 32  1  0  0  0  0
  2  4  1  0  0  0  0
  2  7  1  0  0  0  0
  3  5  2  0  0  0  0
  3 33  1  0  0  0  0
  5  6  1  0  0  0  0
  5  8  1  0  0  0  0
  6  9  1  0  0  0  0
  6 10  2  0  0  0  0
  7  8  2  0  0  0  0
  7 34  1  0  0  0  0
  8 35  1  0  0  0  0
  9 11  1  0  0  0  0
  9 36  1  0  0  0  0
 10 13  1  0  0  0  0
 10 37  1  0  0  0  0
 11 12  1  0  0  0  0
 11 13  2  0  0  0  0
 12 14  1  0  0  0  0
 12 15  1  0  0  0  0
 13 38  1  0  0  0  0
 14 18  1  0  0  0  0
 14 39  1  0  0  0  0
 14 40  1  0  0  0  0
 15 16  1  0  0  0  0
 15 41  1  0  0  0  0
 15 42  1  0  0  0  0
 16 17  1  0  0  0  0
 16 18  1  0  0  0  0
 16 19  1  0  0  0  0
 17 21  1  0  0  0  0
 17 28  1  0  0  0  0
 17 43  1  0  0  0  0
 18 31  1  0  0  0  0
 18 44  1  0  0  0  0
 19 20  1  0  0  0  0
 19 29  2  0  0  0  0
 21 22  1  0  0  0  0
 22 23  2  0  0  0  0
 22 25  1  0  0  0  0
 23 24  1  0  0  0  0
 23 45  1  0  0  0  0
 24 27  2  0  0  0  0
 24 46  1  0  0  0  0
 25 26  2  0  0  0  0
 25 47  1  0  0  0  0
 26 27  1  0  0  0  0
 26 48  1  0  0  0  0
 27 49  1  0  0  0  0
 28 30  1  0  0  0  0
 28 50  1  0  0  0  0
 28 51  1  0  0  0  0
 30 31  1  0  0  0  0
 30 52  1  0  0  0  0
 30 53  1  0  0  0  0
 31 54  1  0  0  0  0
 31 55  1  0  0  0  0
M  CHG  1  20  -1
M  END
> <rseq>
1

> <mseq>
259

> <S>
-5.87242

> <rmsd_refine>
1.229268

> <E_conf>
-47.22098

> <E_score1>
-10.78937

> <E_refine>
-24.80392

> <E_score2>
-5.87242

>  <$File>
outputs/pdb_4j58_cleaned.pdb_2024_06_17__22_47_40_V2_BS398_MIN1_/SDF/sdf_db.sdf

> <Rec_index>
1

>  <PLIF_raw>
[[20,20,20],[823,826,829],[54,54,54],[7,7,7],[3.546123737,3.791777677,1.040737642]]

> <FP:PLIF>
1 16

>  <PLIF_ligidx>
[[20,20,20],[20,20]]

$$$$
259
  MOE2022           3D

 58 60  0  0  1  0  0  0  0  0999 V2000
    7.3730   21.1120   19.3940 C   0  0  0  0  0  0  0  0  0  0  0  0
    6.5550   20.0180   19.1370 C   0  0  0  0  0  0  0  0  0  0  0  0
    5.2290   20.2280   18.7630 C   0  0  0  0  0  0  0  0  0  0  0  0
    4.4750   19.1210   18.4250 O   0  0  0  0  0  0  0  0  0  0  0  0
    3.3300   19.1500   17.5080 C   0  0  1  0  0  0  0  0  0  0  0  0
    4.7040   21.5210   18.6910 C   0  0  0  0  0  0  0  0  0  0  0  0
    6.8630   22.4040   19.2940 C   0  0  0  0  0  0  0  0  0  0  0  0
    5.5300   22.6080   18.9480 C   0  0  0  0  0  0  0  0  0  0  0  0
    3.7430   19.5370   16.0820 C   0  0  0  0  0  0  0  0  0  0  0  0
    4.6530   20.3470   15.8970 O   0  0  0  0  0  0  0  0  0  0  0  0
    2.5490   17.8240   17.5950 C   0  0  2  0  0  0  0  0  0  0  0  0
    3.0490   19.0510   15.0280 N   0  0  0  0  0  0  0  0  0  0  0  0
    1.4450   17.7490   16.5180 C   0  0  2  0  0  0  0  0  0  0  0  0
    2.1830   17.8560   15.1540 C   0  0  1  0  0  0  0  0  0  0  0  0
    2.0200   17.6620   18.9010 O   0  0  0  0  0  0  0  0  0  0  0  0
    3.2910   19.5930   13.6710 C   0  0  0  0  0  0  0  0  0  0  0  0
    0.4750   18.8650   16.6600 N   0  0  0  0  0  0  0  0  0  0  0  0
    0.7260   16.3840   16.6350 C   0  0  0  0  0  0  0  0  0  0  0  0
   -0.4630   16.2970   15.8700 O   0  0  0  0  0  0  0  0  0  0  0  0
    1.2650   17.7800   14.0270 O   0  0  0  0  0  0  0  0  0  0  0  0
    1.2570   16.5540   13.2240 C   0  0  2  0  0  0  0  0  0  0  0  0
    2.5650   16.3820   12.4220 C   0  0  0  0  0  0  0  0  0  0  0  0
    0.0340   16.5330   12.3190 C   0  0  0  0  0  0  0  0  0  0  0  0
   -0.6280   17.5370   12.0600 O   0  0  0  0  0  0  0  0  0  0  0  0
    2.8760   14.9250   12.0480 C   0  0  0  0  0  0  0  0  0  0  0  0
   -0.2850   15.4050   11.6670 O   0  0  0  0  0  0  0  0  0  0  0  0
    0.4520   14.1660   11.7580 C   0  0  0  0  0  0  0  0  0  0  0  0
    1.8520   14.2380   11.1220 C   0  0  2  0  0  0  0  0  0  0  0  0
    2.3560   12.8350   10.7570 C   0  0  0  0  0  0  0  0  0  0  0  0
    1.9460   11.8380   11.3420 O   0  0  0  0  0  0  0  0  0  0  0  0
    3.2870   12.7460    9.8080 N   0  0  0  0  0  0  0  0  0  0  0  0
    8.3890   20.9650   19.6550 H   0  0  0  0  0  0  0  0  0  0  0  0
    6.9430   19.0370   19.2050 H   0  0  0  0  0  0  0  0  0  0  0  0
    2.6560   19.9160   17.8640 H   0  0  0  0  0  0  0  0  0  0  0  0
    3.6910   21.6870   18.4310 H   0  0  0  0  0  0  0  0  0  0  0  0
    7.4890   23.2330   19.4790 H   0  0  0  0  0  0  0  0  0  0  0  0
    5.1470   23.5930   18.8760 H   0  0  0  0  0  0  0  0  0  0  0  0
    3.2540   17.0120   17.4180 H   0  0  0  0  0  0  0  0  0  0  0  0
    2.8300   16.9910   15.0840 H   0  0  0  0  0  0  0  0  0  0  0  0
    1.4710   18.4250   19.1040 H   0  0  0  0  0  0  0  0  0  0  0  0
    3.7960   20.5480   13.6820 H   0  0  0  0  0  0  0  0  0  0  0  0
    3.8930   18.9210   13.0780 H   0  0  0  0  0  0  0  0  0  0  0  0
    2.3660   19.7610   13.1360 H   0  0  0  0  0  0  0  0  0  0  0  0
    0.9550   19.7480   16.5600 H   0  0  0  0  0  0  0  0  0  0  0  0
   -0.2120   18.7910   15.9210 H   0  0  0  0  0  0  0  0  0  0  0  0
    1.4100   15.6070   16.3030 H   0  0  0  0  0  0  0  0  0  0  0  0
    0.4590   16.1880   17.6730 H   0  0  0  0  0  0  0  0  0  0  0  0
   -1.0920   16.9360   16.2150 H   0  0  0  0  0  0  0  0  0  0  0  0
    1.1820   15.7280   13.9170 H   0  0  0  0  0  0  0  0  0  0  0  0
    2.5170   16.9950   11.5210 H   0  0  0  0  0  0  0  0  0  0  0  0
    3.4030   16.7330   13.0190 H   0  0  0  0  0  0  0  0  0  0  0  0
    3.8500   14.9110   11.5560 H   0  0  0  0  0  0  0  0  0  0  0  0
    2.9680   14.3400   12.9660 H   0  0  0  0  0  0  0  0  0  0  0  0
    0.5360   13.8680   12.8020 H   0  0  0  0  0  0  0  0  0  0  0  0
   -0.1330   13.4080   11.2340 H   0  0  0  0  0  0  0  0  0  0  0  0
    1.7740   14.8150   10.1990 H   0  0  0  0  0  0  0  0  0  0  0  0
    3.6480   11.8390    9.5550 H   0  0  0  0  0  0  0  0  0  0  0  0
    3.6140   13.5770    9.3380 H   0  0  0  0  0  0  0  0  0  0  0  0
  1  2  1  0  0  0  0
  1  7  2  0  0  0  0
  1 32  1  0  0  0  0
  2  3  2  0  0  0  0
  2 33  1  0  0  0  0
  3  4  1  0  0  0  0
  3  6  1  0  0  0  0
  4  5  1  0  0  0  0
  5  9  1  0  0  0  0
  5 11  1  0  0  0  0
  5 34  1  0  0  0  0
  6  8  2  0  0  0  0
  6 35  1  0  0  0  0
  7  8  1  0  0  0  0
  7 36  1  0  0  0  0
  8 37  1  0  0  0  0
  9 10  2  0  0  0  0
  9 12  1  0  0  0  0
 11 13  1  0  0  0  0
 11 15  1  0  0  0  0
 11 38  1  0  0  0  0
 12 14  1  0  0  0  0
 12 16  1  0  0  0  0
 13 14  1  0  0  0  0
 13 17  1  0  0  0  0
 13 18  1  0  0  0  0
 14 20  1  0  0  0  0
 14 39  1  0  0  0  0
 15 40  1  0  0  0  0
 16 41  1  0  0  0  0
 16 42  1  0  0  0  0
 16 43  1  0  0  0  0
 17 44  1  0  0  0  0
 17 45  1  0  0  0  0
 18 19  1  0  0  0  0
 18 46  1  0  0  0  0
 18 47  1  0  0  0  0
 19 48  1  0  0  0  0
 20 21  1  0  0  0  0
 21 22  1  0  0  0  0
 21 23  1  0  0  0  0
 21 49  1  0  0  0  0
 22 25  1  0  0  0  0
 22 50  1  0  0  0  0
 22 51  1  0  0  0  0
 23 24  2  0  0  0  0
 23 26  1  0  0  0  0
 25 28  1  0  0  0  0
 25 52  1  0  0  0  0
 25 53  1  0  0  0  0
 26 27  1  0  0  0  0
 27 28  1  0  0  0  0
 27 54  1  0  0  0  0
 27 55  1  0  0  0  0
 28 29  1  0  0  0  0
 28 56  1  0  0  0  0
 29 30  2  0  0  0  0
 29 31  1  0  0  0  0
 31 57  1  0  0  0  0
 31 58  1  0  0  0  0
M  END
> <rseq>
1

> <mseq>
260

> <S>
-5.869729

> <rmsd_refine>
1.945871

> <E_conf>
91.98433

> <E_score1>
-10.31348

> <E_refine>
-30.52008

> <E_score2>
-5.869729

>  <$File>
outputs/pdb_4j58_cleaned.pdb_2024_06_17__22_47_40_V2_BS398_MIN1_/SDF/sdf_db.sdf

> <Rec_index>
1

>  <PLIF_raw>
[[],[],[],[],[]]

>  <PLIF_ligidx>
[]

$$$$
260
  MOE2022           3D

 58 60  0  0  1  0  0  0  0  0999 V2000
    2.0710   16.3630   20.5300 C   0  0  0  0  0  0  0  0  0  0  0  0
    0.7520   15.9290   20.5530 C   0  0  0  0  0  0  0  0  0  0  0  0
    2.6090   16.8910   19.3620 C   0  0  0  0  0  0  0  0  0  0  0  0
   -0.0250   16.0070   19.4030 C   0  0  0  0  0  0  0  0  0  0  0  0
    0.5130   16.5360   18.2340 C   0  0  0  0  0  0  0  0  0  0  0  0
    1.8320   16.9890   18.2030 C   0  0  0  0  0  0  0  0  0  0  0  0
    2.3890   17.5580   16.9050 C   0  0  1  0  0  0  0  0  0  0  0  0
    3.4160   18.5830   17.1500 N   0  0  0  0  0  0  0  0  0  0  0  0
    2.8710   16.4540   15.9670 C   0  0  0  0  0  0  0  0  0  0  0  0
    4.0030   19.3610   16.1810 C   0  0  0  0  0  0  0  0  0  0  0  0
    2.3240   16.4220   14.7420 N   0  0  0  0  0  0  0  0  0  0  0  0
    3.6030   19.2350   15.0240 O   0  0  0  0  0  0  0  0  0  0  0  0
    5.0790   20.2810   16.5760 C   0  0  0  0  0  0  0  0  0  0  0  0
    3.7560   15.6670   16.2950 O   0  0  0  0  0  0  0  0  0  0  0  0
    2.7320   15.5110   13.6800 C   0  0  1  0  0  0  0  0  0  0  0  0
    1.6700   14.4550   13.3800 C   0  0  0  0  0  0  0  0  0  0  0  0
    2.9630   16.2150   12.3390 C   0  0  0  0  0  0  0  0  0  0  0  0
    5.7700   20.0960   17.7860 C   0  0  0  0  0  0  0  0  0  0  0  0
    1.8530   14.1360   11.8960 C   0  0  0  0  0  0  0  0  0  0  0  0
    5.4870   21.3540   15.7560 C   0  0  0  0  0  0  0  0  0  0  0  0
    2.4620   15.3340   11.2300 N   0  3  2  0  0  0  0  0  0  0  0  0
    6.8260   20.9270   18.1520 C   0  0  0  0  0  0  0  0  0  0  0  0
    4.8730   21.6120   14.5670 O   0  0  0  0  0  0  0  0  0  0  0  0
    3.5090   15.0250   10.1910 C   0  0  0  0  0  0  0  0  0  0  0  0
    4.6480   14.0970   10.6260 C   0  0  0  0  0  0  0  0  0  0  0  0
    7.2110   21.9710   17.3120 C   0  0  0  0  0  0  0  0  0  0  0  0
    7.5760   20.6800   19.4400 C   0  0  0  0  0  0  0  0  0  0  0  0
    6.5410   22.1900   16.1170 C   0  0  0  0  0  0  0  0  0  0  0  0
    5.9270   14.4230    9.8780 C   0  0  0  0  0  0  0  0  0  0  0  0
    6.3190   13.5930    9.0320 O   0  5  0  0  0  0  0  0  0  0  0  0
    6.4640   15.5190   10.1530 O   0  0  0  0  0  0  0  0  0  0  0  0
    2.6680   16.2920   21.4030 H   0  0  0  0  0  0  0  0  0  0  0  0
    0.3390   15.5410   21.4440 H   0  0  0  0  0  0  0  0  0  0  0  0
    3.6150   17.2170   19.3650 H   0  0  0  0  0  0  0  0  0  0  0  0
   -1.0290   15.6700   19.4170 H   0  0  0  0  0  0  0  0  0  0  0  0
   -0.0880   16.5920   17.3630 H   0  0  0  0  0  0  0  0  0  0  0  0
    1.5690   18.0660   16.4150 H   0  0  0  0  0  0  0  0  0  0  0  0
    3.6940   18.7290   18.1320 H   0  0  0  0  0  0  0  0  0  0  0  0
    1.6150   17.1050   14.5170 H   0  0  0  0  0  0  0  0  0  0  0  0
    3.6600   14.9990   13.9350 H   0  0  0  0  0  0  0  0  0  0  0  0
    1.8060   13.5680   13.9930 H   0  0  0  0  0  0  0  0  0  0  0  0
    0.6730   14.8730   13.5300 H   0  0  0  0  0  0  0  0  0  0  0  0
    2.4470   17.1660   12.3500 H   0  0  0  0  0  0  0  0  0  0  0  0
    4.0100   16.4690   12.2400 H   0  0  0  0  0  0  0  0  0  0  0  0
    5.5030   19.3010   18.4330 H   0  0  0  0  0  0  0  0  0  0  0  0
    2.4980   13.2710   11.8180 H   0  0  0  0  0  0  0  0  0  0  0  0
    0.9150   13.8260   11.4550 H   0  0  0  0  0  0  0  0  0  0  0  0
    1.7180   15.8380   10.7680 H   0  0  0  0  0  0  0  0  0  0  0  0
    4.1400   20.9770   14.4240 H   0  0  0  0  0  0  0  0  0  0  0  0
    3.0680   14.6050    9.2970 H   0  0  0  0  0  0  0  0  0  0  0  0
    3.9600   15.9440    9.8390 H   0  0  0  0  0  0  0  0  0  0  0  0
    4.8410   14.2110   11.6880 H   0  0  0  0  0  0  0  0  0  0  0  0
    4.3610   13.0620   10.4400 H   0  0  0  0  0  0  0  0  0  0  0  0
    8.0200   22.6010   17.5840 H   0  0  0  0  0  0  0  0  0  0  0  0
    7.9350   21.6190   19.8620 H   0  0  0  0  0  0  0  0  0  0  0  0
    6.9380   20.1980   20.1810 H   0  0  0  0  0  0  0  0  0  0  0  0
    8.4350   20.0360   19.2510 H   0  0  0  0  0  0  0  0  0  0  0  0
    6.8300   22.9870   15.4810 H   0  0  0  0  0  0  0  0  0  0  0  0
  1  2  2  0  0  0  0
  1  3  1  0  0  0  0
  1 32  1  0  0  0  0
  2  4  1  0  0  0  0
  2 33  1  0  0  0  0
  3  6  2  0  0  0  0
  3 34  1  0  0  0  0
  4  5  2  0  0  0  0
  4 35  1  0  0  0  0
  5  6  1  0  0  0  0
  5 36  1  0  0  0  0
  6  7  1  0  0  0  0
  7  8  1  0  0  0  0
  7  9  1  0  0  0  0
  7 37  1  0  0  0  0
  8 10  1  0  0  0  0
  8 38  1  0  0  0  0
  9 11  1  0  0  0  0
  9 14  2  0  0  0  0
 10 12  2  0  0  0  0
 10 13  1  0  0  0  0
 11 15  1  0  0  0  0
 11 39  1  0  0  0  0
 13 18  1  0  0  0  0
 13 20  2  0  0  0  0
 15 16  1  0  0  0  0
 15 17  1  0  0  0  0
 15 40  1  0  0  0  0
 16 19  1  0  0  0  0
 16 41  1  0  0  0  0
 16 42  1  0  0  0  0
 17 21  1  0  0  0  0
 17 43  1  0  0  0  0
 17 44  1  0  0  0  0
 18 22  2  0  0  0  0
 18 45  1  0  0  0  0
 19 21  1  0  0  0  0
 19 46  1  0  0  0  0
 19 47  1  0  0  0  0
 20 23  1  0  0  0  0
 20 28  1  0  0  0  0
 21 24  1  0  0  0  0
 21 48  1  0  0  0  0
 22 26  1  0  0  0  0
 22 27  1  0  0  0  0
 23 49  1  0  0  0  0
 24 25  1  0  0  0  0
 24 50  1  0  0  0  0
 24 51  1  0  0  0  0
 25 29  1  0  0  0  0
 25 52  1  0  0  0  0
 25 53  1  0  0  0  0
 26 28  2  0  0  0  0
 26 54  1  0  0  0  0
 27 55  1  0  0  0  0
 27 56  1  0  0  0  0
 27 57  1  0  0  0  0
 28 58  1  0  0  0  0
 29 30  1  0  0  0  0
 29 31  2  0  0  0  0
M  CHG  1  21   1
M  CHG  1  30  -1
M  END
> <rseq>
1

> <mseq>
261

> <S>
-7.402939

> <rmsd_refine>
1.593088

> <E_conf>
-120.021

> <E_score1>
-10.90602

> <E_refine>
-42.96068

> <E_score2>
-7.402939

>  <$File>
outputs/pdb_4j58_cleaned.pdb_2024_06_17__22_47_40_V2_BS398_MIN1_/SDF/sdf_db.sdf

> <Rec_index>
1

>  <PLIF_raw>
[[14,31,31,1,3,6,5,4,2],[954,823,823,1519,1519,1519,1519,1519,1519],[62,54,54,102,102,102,102,102,102],[2,2,7,10,10,10,10,10,10],[1.3,5.6,3.938373134,0.5,0.5,0.5,0.5,0.5,0.5]]

> <FP:PLIF>
6 19 1 16 20 22

>  <PLIF_ligidx>
[31,31,31,31,14,[1,3,6,5,4,2]]

$$$$
261
  MOE2022           3D

 54 56  0  0  1  0  0  0  0  0999 V2000
    1.6650   16.1440   20.4800 C   0  0  0  0  0  0  0  0  0  0  0  0
    0.3410   15.7500   20.3220 C   0  0  0  0  0  0  0  0  0  0  0  0
    2.3210   16.8060   19.4470 C   0  0  0  0  0  0  0  0  0  0  0  0
   -0.3210   16.0020   19.1260 C   0  0  0  0  0  0  0  0  0  0  0  0
    0.3320   16.6710   18.0970 C   0  0  0  0  0  0  0  0  0  0  0  0
    1.6530   17.0900   18.2510 C   0  0  0  0  0  0  0  0  0  0  0  0
    2.3180   17.8390   17.1040 C   0  0  1  0  0  0  0  0  0  0  0  0
    3.4090   18.7050   17.5610 N   0  0  0  0  0  0  0  0  0  0  0  0
    2.7680   16.9000   15.9920 C   0  0  0  0  0  0  0  0  0  0  0  0
    3.9730   19.7110   16.8140 C   0  0  0  0  0  0  0  0  0  0  0  0
    2.1380   17.0240   14.8140 N   0  0  0  0  0  0  0  0  0  0  0  0
    3.4270   20.0100   15.7520 O   0  0  0  0  0  0  0  0  0  0  0  0
    5.2010   20.3360   17.3190 C   0  0  0  0  0  0  0  0  0  0  0  0
    3.6820   16.0920   16.1550 O   0  0  0  0  0  0  0  0  0  0  0  0
    2.6100   16.3990   13.5860 C   0  0  1  0  0  0  0  0  0  0  0  0
    2.2230   14.9250   13.4850 C   0  0  0  0  0  0  0  0  0  0  0  0
    2.0270   17.0170   12.3100 C   0  0  0  0  0  0  0  0  0  0  0  0
    5.6090   20.1190   18.6490 C   0  0  0  0  0  0  0  0  0  0  0  0
    2.1980   14.6470   11.9830 C   0  0  0  0  0  0  0  0  0  0  0  0
    6.0320   21.1420   16.5050 C   0  0  0  0  0  0  0  0  0  0  0  0
    1.8940   15.9350   11.2690 N   0  3  2  0  0  0  0  0  0  0  0  0
    6.8170   20.6250   19.1060 C   0  0  0  0  0  0  0  0  0  0  0  0
    5.6640   21.4800   15.2330 O   0  0  0  0  0  0  0  0  0  0  0  0
    2.7420   16.1590   10.0640 C   0  0  0  0  0  0  0  0  0  0  0  0
    7.6600   21.3490   18.2540 C   0  0  0  0  0  0  0  0  0  0  0  0
    8.8860   21.7910   18.6720 O   0  0  0  0  0  0  0  0  0  0  0  0
    4.2150   16.4510   10.3770 C   0  0  0  0  0  0  0  0  0  0  0  0
    7.2590   21.6290   16.9540 C   0  0  0  0  0  0  0  0  0  0  0  0
    4.9750   15.4770   10.5630 O   0  5  0  0  0  0  0  0  0  0  0  0
    4.5450   17.6530   10.4630 O   0  0  0  0  0  0  0  0  0  0  0  0
    7.1490   20.4040   20.4140 O   0  0  0  0  0  0  0  0  0  0  0  0
    2.1750   15.9440   21.3870 H   0  0  0  0  0  0  0  0  0  0  0  0
   -0.1670   15.2620   21.1080 H   0  0  0  0  0  0  0  0  0  0  0  0
    3.3310   17.0920   19.5840 H   0  0  0  0  0  0  0  0  0  0  0  0
   -1.3260   15.6910   19.0010 H   0  0  0  0  0  0  0  0  0  0  0  0
   -0.1850   16.8660   17.1930 H   0  0  0  0  0  0  0  0  0  0  0  0
    1.5590   18.4920   16.6930 H   0  0  0  0  0  0  0  0  0  0  0  0
    3.8790   18.4240   18.4330 H   0  0  0  0  0  0  0  0  0  0  0  0
    1.3910   17.6980   14.7350 H   0  0  0  0  0  0  0  0  0  0  0  0
    3.6930   16.4880   13.5110 H   0  0  0  0  0  0  0  0  0  0  0  0
    2.9430   14.2870   13.9940 H   0  0  0  0  0  0  0  0  0  0  0  0
    1.2230   14.7710   13.8930 H   0  0  0  0  0  0  0  0  0  0  0  0
    1.0640   17.4500   12.5470 H   0  0  0  0  0  0  0  0  0  0  0  0
    2.6390   17.8520   11.9950 H   0  0  0  0  0  0  0  0  0  0  0  0
    5.0010   19.5680   19.3190 H   0  0  0  0  0  0  0  0  0  0  0  0
    3.1670   14.2580   11.6980 H   0  0  0  0  0  0  0  0  0  0  0  0
    1.5000   13.8520   11.7560 H   0  0  0  0  0  0  0  0  0  0  0  0
    0.9200   15.9010   11.0020 H   0  0  0  0  0  0  0  0  0  0  0  0
    4.7620   21.1400   15.0480 H   0  0  0  0  0  0  0  0  0  0  0  0
    2.6920   15.2800    9.4210 H   0  0  0  0  0  0  0  0  0  0  0  0
    2.3460   17.0100    9.5110 H   0  0  0  0  0  0  0  0  0  0  0  0
    9.1350   21.4350   19.5460 H   0  0  0  0  0  0  0  0  0  0  0  0
    7.8780   22.2040   16.3140 H   0  0  0  0  0  0  0  0  0  0  0  0
    8.0350   20.7610   20.6190 H   0  0  0  0  0  0  0  0  0  0  0  0
  1  2  2  0  0  0  0
  1  3  1  0  0  0  0
  1 32  1  0  0  0  0
  2  4  1  0  0  0  0
  2 33  1  0  0  0  0
  3  6  2  0  0  0  0
  3 34  1  0  0  0  0
  4  5  2  0  0  0  0
  4 35  1  0  0  0  0
  5  6  1  0  0  0  0
  5 36  1  0  0  0  0
  6  7  1  0  0  0  0
  7  8  1  0  0  0  0
  7  9  1  0  0  0  0
  7 37  1  0  0  0  0
  8 10  1  0  0  0  0
  8 38  1  0  0  0  0
  9 11  1  0  0  0  0
  9 14  2  0  0  0  0
 10 12  2  0  0  0  0
 10 13  1  0  0  0  0
 11 15  1  0  0  0  0
 11 39  1  0  0  0  0
 13 18  1  0  0  0  0
 13 20  2  0  0  0  0
 15 16  1  0  0  0  0
 15 17  1  0  0  0  0
 15 40  1  0  0  0  0
 16 19  1  0  0  0  0
 16 41  1  0  0  0  0
 16 42  1  0  0  0  0
 17 21  1  0  0  0  0
 17 43  1  0  0  0  0
 17 44  1  0  0  0  0
 18 22  2  0  0  0  0
 18 45  1  0  0  0  0
 19 21  1  0  0  0  0
 19 46  1  0  0  0  0
 19 47  1  0  0  0  0
 20 23  1  0  0  0  0
 20 28  1  0  0  0  0
 21 24  1  0  0  0  0
 21 48  1  0  0  0  0
 22 25  1  0  0  0  0
 22 31  1  0  0  0  0
 23 49  1  0  0  0  0
 24 27  1  0  0  0  0
 24 50  1  0  0  0  0
 24 51  1  0  0  0  0
 25 26  1  0  0  0  0
 25 28  2  0  0  0  0
 26 52  1  0  0  0  0
 27 29  1  0  0  0  0
 27 30  2  0  0  0  0
 28 53  1  0  0  0  0
 31 54  1  0  0  0  0
M  CHG  1  21   1
M  CHG  1  29  -1
M  END
> <rseq>
1

> <mseq>
262

> <S>
-6.665087

> <rmsd_refine>
1.741863

> <E_conf>
12.5732

> <E_score1>
-10.22393

> <E_refine>
-40.84805

> <E_score2>
-6.665087

>  <$File>
outputs/pdb_4j58_cleaned.pdb_2024_06_17__22_47_40_V2_BS398_MIN1_/SDF/sdf_db.sdf

> <Rec_index>
1

>  <PLIF_raw>
[[14,29,30,29,30,30,26,26,26,26,26,26,1,3,6,5,4,2],[954,823,823,823,823,829,1651,1655,1659,1657,1653,1650,1519,1519,1519,1519,1519,1519],[62,54,54,54,54,54,112,112,112,112,112,112,102,102,102,102,102,102],[2,2,2,7,7,7,10,10,10,10,10,10,10,10,10,10,10,10],[2.2,2.1,1.5,3.575853187,4.437439542,3.221953895,1,1,1,1,1,1,0.5,0.5,0.5,0.5,0.5,0.5]]

> <FP:PLIF>
6 19 1 16 20 23 22 15 47

>  <PLIF_ligidx>
[[29,30],[29,30],[29,30,30],[29,30],14,14,[1,3,6,5,4,2],[26,26,26,26,26,26],[26,26,26,26,26,26]]

$$$$
262
  MOE2022           3D

 56 58  0  0  1  0  0  0  0  0999 V2000
    2.6780   17.0090   19.7520 O   0  0  0  0  0  0  0  0  0  0  0  0
    1.8310   17.3280   18.9180 C   0  0  0  0  0  0  0  0  0  0  0  0
    2.0730   18.4210   18.1200 N   0  0  0  0  0  0  0  0  0  0  0  0
    0.6000   16.5620   18.6870 C   0  0  0  0  0  0  0  0  0  0  0  0
   -0.3830   17.0000   17.7820 C   0  0  0  0  0  0  0  0  0  0  0  0
   -1.5140   16.2310   17.5350 C   0  0  0  0  0  0  0  0  0  0  0  0
    0.4050   15.3350   19.3390 C   0  0  0  0  0  0  0  0  0  0  0  0
    3.3960   18.7040   17.5680 C   0  0  1  0  0  0  0  0  0  0  0  0
   -0.7240   14.5650   19.0790 C   0  0  0  0  0  0  0  0  0  0  0  0
   -1.6840   15.0120   18.1800 C   0  0  0  0  0  0  0  0  0  0  0  0
    3.4170   18.3010   16.0890 C   0  0  0  0  0  0  0  0  0  0  0  0
    3.1950   16.9690   15.7050 C   0  0  0  0  0  0  0  0  0  0  0  0
    3.1170   15.9790   16.6360 O   0  0  0  0  0  0  0  0  0  0  0  0
    3.0710   16.6020   14.3710 C   0  0  0  0  0  0  0  0  0  0  0  0
    3.2200   17.5770   13.3950 C   0  0  0  0  0  0  0  0  0  0  0  0
    3.8070   20.1660   17.8360 C   0  0  0  0  0  0  0  0  0  0  0  0
    3.1050   17.1670   12.0900 O   0  0  0  0  0  0  0  0  0  0  0  0
    3.5050   18.9000   13.7400 C   0  0  0  0  0  0  0  0  0  0  0  0
    4.7770   20.7250   16.7830 C   0  0  1  0  0  0  0  0  0  0  0  0
    3.6290   19.2550   15.0840 C   0  0  0  0  0  0  0  0  0  0  0  0
    3.2860   17.9940   10.9190 C   0  0  0  0  0  0  0  0  0  0  0  0
    4.0210   20.6740   15.4460 C   0  0  0  0  0  0  0  0  0  0  0  0
    3.3420   17.1550    9.6660 C   0  0  0  0  0  0  0  0  0  0  0  0
    5.3160   22.1300   17.0910 C   0  0  0  0  0  0  0  0  0  0  0  0
    2.4310   17.1630    8.8410 O   0  0  0  0  0  0  0  0  0  0  0  0
    4.4260   16.3770    9.5440 N   0  0  0  0  0  0  0  0  0  0  0  0
    6.1480   22.5890   16.2770 O   0  0  0  0  0  0  0  0  0  0  0  0
    4.9270   22.7130   18.1290 O   0  5  0  0  0  0  0  0  0  0  0  0
    4.6140   15.3920    8.4920 C   0  0  0  0  0  0  0  0  0  0  0  0
    5.4330   14.2200    9.0430 C   0  0  0  0  0  0  0  0  0  0  0  0
    5.3200   16.0470    7.3060 C   0  0  0  0  0  0  0  0  0  0  0  0
    1.3010   18.7450   17.5220 H   0  0  0  0  0  0  0  0  0  0  0  0
   -0.2750   17.9220   17.2720 H   0  0  0  0  0  0  0  0  0  0  0  0
   -2.2470   16.5730   16.8500 H   0  0  0  0  0  0  0  0  0  0  0  0
    1.1330   14.9790   20.0220 H   0  0  0  0  0  0  0  0  0  0  0  0
    4.1240   18.0990   18.0780 H   0  0  0  0  0  0  0  0  0  0  0  0
   -0.8560   13.6290   19.5560 H   0  0  0  0  0  0  0  0  0  0  0  0
   -2.5430   14.4230   17.9840 H   0  0  0  0  0  0  0  0  0  0  0  0
    2.8050   15.1380   16.2470 H   0  0  0  0  0  0  0  0  0  0  0  0
    2.8790   15.5950   14.1010 H   0  0  0  0  0  0  0  0  0  0  0  0
    2.9150   20.7960   17.8600 H   0  0  0  0  0  0  0  0  0  0  0  0
    4.2780   20.2120   18.8190 H   0  0  0  0  0  0  0  0  0  0  0  0
    3.6410   19.6340   12.9900 H   0  0  0  0  0  0  0  0  0  0  0  0
    5.6390   20.0600   16.7250 H   0  0  0  0  0  0  0  0  0  0  0  0
    2.4780   18.7110   10.8660 H   0  0  0  0  0  0  0  0  0  0  0  0
    4.2100   18.5430   11.0290 H   0  0  0  0  0  0  0  0  0  0  0  0
    3.1260   21.2950   15.5000 H   0  0  0  0  0  0  0  0  0  0  0  0
    4.6650   21.0740   14.6610 H   0  0  0  0  0  0  0  0  0  0  0  0
    5.1240   16.4030   10.2690 H   0  0  0  0  0  0  0  0  0  0  0  0
    3.6440   15.0140    8.1630 H   0  0  0  0  0  0  0  0  0  0  0  0
    4.9030   13.7630    9.8800 H   0  0  0  0  0  0  0  0  0  0  0  0
    5.5720   13.4700    8.2640 H   0  0  0  0  0  0  0  0  0  0  0  0
    6.4090   14.5680    9.3840 H   0  0  0  0  0  0  0  0  0  0  0  0
    5.3950   15.3350    6.4840 H   0  0  0  0  0  0  0  0  0  0  0  0
    4.7460   16.9090    6.9650 H   0  0  0  0  0  0  0  0  0  0  0  0
    6.3160   16.3710    7.6050 H   0  0  0  0  0  0  0  0  0  0  0  0
  1  2  2  0  0  0  0
  2  3  1  0  0  0  0
  2  4  1  0  0  0  0
  3  8  1  0  0  0  0
  3 32  1  0  0  0  0
  4  5  2  0  0  0  0
  4  7  1  0  0  0  0
  5  6  1  0  0  0  0
  5 33  1  0  0  0  0
  6 10  2  0  0  0  0
  6 34  1  0  0  0  0
  7  9  2  0  0  0  0
  7 35  1  0  0  0  0
  8 11  1  0  0  0  0
  8 16  1  0  0  0  0
  8 36  1  0  0  0  0
  9 10  1  0  0  0  0
  9 37  1  0  0  0  0
 10 38  1  0  0  0  0
 11 12  1  0  0  0  0
 11 20  2  0  0  0  0
 12 13  1  0  0  0  0
 12 14  2  0  0  0  0
 13 39  1  0  0  0  0
 14 15  1  0  0  0  0
 14 40  1  0  0  0  0
 15 17  1  0  0  0  0
 15 18  2  0  0  0  0
 16 19  1  0  0  0  0
 16 41  1  0  0  0  0
 16 42  1  0  0  0  0
 17 21  1  0  0  0  0
 18 20  1  0  0  0  0
 18 43  1  0  0  0  0
 19 22  1  0  0  0  0
 19 24  1  0  0  0  0
 19 44  1  0  0  0  0
 20 22  1  0  0  0  0
 21 23  1  0  0  0  0
 21 45  1  0  0  0  0
 21 46  1  0  0  0  0
 22 47  1  0  0  0  0
 22 48  1  0  0  0  0
 23 25  2  0  0  0  0
 23 26  1  0  0  0  0
 24 27  2  0  0  0  0
 24 28  1  0  0  0  0
 26 29  1  0  0  0  0
 26 49  1  0  0  0  0
 29 30  1  0  0  0  0
 29 31  1  0  0  0  0
 29 50  1  0  0  0  0
 30 51  1  0  0  0  0
 30 52  1  0  0  0  0
 30 53  1  0  0  0  0
 31 54  1  0  0  0  0
 31 55  1  0  0  0  0
 31 56  1  0  0  0  0
M  CHG  1  28  -1
M  END
> <rseq>
1

> <mseq>
263

> <S>
-6.057672

> <rmsd_refine>
1.487885

> <E_conf>
-163.0629

> <E_score1>
-11.30781

> <E_refine>
-30.65203

> <E_score2>
-6.057672

>  <$File>
outputs/pdb_4j58_cleaned.pdb_2024_06_17__22_47_40_V2_BS398_MIN1_/SDF/sdf_db.sdf

> <Rec_index>
1

>  <PLIF_raw>
[[13,4,7,9,10,6,5],[1071,1074,1074,1074,1074,1074,1074],[71,72,72,72,72,72,72],[3,10,10,10,10,10,10],[0.6,0.5,0.5,0.5,0.5,0.5,0.5]]

> <FP:PLIF>
7 48

>  <PLIF_ligidx>
[13,[4,7,9,10,6,5]]

$$$$
263
  MOE2022           3D

 59 61  0  0  1  0  0  0  0  0999 V2000
    7.2440   20.9850   19.3890 C   0  0  0  0  0  0  0  0  0  0  0  0
    6.4340   19.8710   19.1980 C   0  0  0  0  0  0  0  0  0  0  0  0
    5.1090   20.0410   18.7980 C   0  0  0  0  0  0  0  0  0  0  0  0
    4.3480   18.8980   18.5790 O   0  0  0  0  0  0  0  0  0  0  0  0
    3.1510   18.8310   17.7290 C   0  0  1  0  0  0  0  0  0  0  0  0
    4.5870   21.3240   18.6080 C   0  0  0  0  0  0  0  0  0  0  0  0
    6.7320   22.2640   19.1910 C   0  0  0  0  0  0  0  0  0  0  0  0
    5.4050   22.4320   18.8030 C   0  0  0  0  0  0  0  0  0  0  0  0
    3.4980   18.9590   16.2440 C   0  0  0  0  0  0  0  0  0  0  0  0
    4.4220   19.6960   15.9000 O   0  0  0  0  0  0  0  0  0  0  0  0
    2.3110   17.5720   18.0340 C   0  0  2  0  0  0  0  0  0  0  0  0
    2.7560   18.3040   15.3150 N   0  0  0  0  0  0  0  0  0  0  0  0
    1.0880   17.5180   17.0890 C   0  0  2  0  0  0  0  0  0  0  0  0
    1.6950   17.3190   15.6690 C   0  0  1  0  0  0  0  0  0  0  0  0
    1.9370   17.5400   19.3980 O   0  0  0  0  0  0  0  0  0  0  0  0
    3.1450   18.3700   13.8930 C   0  0  0  0  0  0  0  0  0  0  0  0
    0.3130   18.7860   17.1320 N   0  0  0  0  0  0  0  0  0  0  0  0
    0.1610   16.3360   17.4660 C   0  0  0  0  0  0  0  0  0  0  0  0
   -1.1200   16.4090   16.8640 O   0  0  0  0  0  0  0  0  0  0  0  0
    0.6590   17.2950   14.6340 O   0  0  0  0  0  0  0  0  0  0  0  0
    0.3520   16.0020   14.0180 C   0  0  0  0  0  0  0  0  0  0  0  0
    1.5480   15.3570   13.3490 C   0  0  0  0  0  0  0  0  0  0  0  0
    2.1730   14.4560   13.8810 O   0  0  0  0  0  0  0  0  0  0  0  0
    1.9350   15.8750   12.1400 N   0  0  0  0  0  0  0  0  0  0  0  0
    3.0610   15.4310   11.3670 C   0  0  0  0  0  0  0  0  0  0  0  0
    3.8150   16.2390   10.5670 C   0  0  0  0  0  0  0  0  0  0  0  0
    3.5550   14.1230   11.3000 C   0  0  0  0  0  0  0  0  0  0  0  0
    3.6970   17.7170   10.2600 C   0  0  0  0  0  0  0  0  0  0  0  0
    4.6310   14.1420   10.4670 C   0  0  0  0  0  0  0  0  0  0  0  0
    4.7920   15.4280   10.0140 N   0  0  0  0  0  0  0  0  0  0  0  0
    5.8570   15.8310    9.1100 C   0  0  0  0  0  0  0  0  0  0  0  0
    8.2550   20.8620   19.6780 H   0  0  0  0  0  0  0  0  0  0  0  0
    6.8280   18.9010   19.3420 H   0  0  0  0  0  0  0  0  0  0  0  0
    2.5350   19.6780   17.9920 H   0  0  0  0  0  0  0  0  0  0  0  0
    3.5810   21.4670   18.3130 H   0  0  0  0  0  0  0  0  0  0  0  0
    7.3530   23.1090   19.3320 H   0  0  0  0  0  0  0  0  0  0  0  0
    5.0180   23.4070   18.6520 H   0  0  0  0  0  0  0  0  0  0  0  0
    2.9360   16.6970   17.8470 H   0  0  0  0  0  0  0  0  0  0  0  0
    2.1630   16.3430   15.6650 H   0  0  0  0  0  0  0  0  0  0  0  0
    1.5520   18.3920   19.6220 H   0  0  0  0  0  0  0  0  0  0  0  0
    3.8040   19.1960   13.6670 H   0  0  0  0  0  0  0  0  0  0  0  0
    3.6550   17.4660   13.5910 H   0  0  0  0  0  0  0  0  0  0  0  0
    2.2880   18.4980   13.2480 H   0  0  0  0  0  0  0  0  0  0  0  0
    0.9060   19.5560   16.8560 H   0  0  0  0  0  0  0  0  0  0  0  0
   -0.4480   18.7190   16.4690 H   0  0  0  0  0  0  0  0  0  0  0  0
    0.6300   15.4070   17.1680 H   0  0  0  0  0  0  0  0  0  0  0  0
    0.0050   16.3110   18.5440 H   0  0  0  0  0  0  0  0  0  0  0  0
   -1.5620   17.1950   17.1950 H   0  0  0  0  0  0  0  0  0  0  0  0
   -0.0520   15.3410   14.7720 H   0  0  0  0  0  0  0  0  0  0  0  0
   -0.4330   16.1700   13.2940 H   0  0  0  0  0  0  0  0  0  0  0  0
    1.4050   16.6880   11.7920 H   0  0  0  0  0  0  0  0  0  0  0  0
    3.1660   13.2710   11.7920 H   0  0  0  0  0  0  0  0  0  0  0  0
    2.8880   18.1680   10.8350 H   0  0  0  0  0  0  0  0  0  0  0  0
    4.6240   18.2320   10.5070 H   0  0  0  0  0  0  0  0  0  0  0  0
    3.4860   17.8640    9.2000 H   0  0  0  0  0  0  0  0  0  0  0  0
    5.2760   13.3580   10.1660 H   0  0  0  0  0  0  0  0  0  0  0  0
    5.5570   16.6410    8.4600 H   0  0  0  0  0  0  0  0  0  0  0  0
    6.7270   16.1590    9.6600 H   0  0  0  0  0  0  0  0  0  0  0  0
    6.1710   15.0130    8.4770 H   0  0  0  0  0  0  0  0  0  0  0  0
  1  2  1  0  0  0  0
  1  7  2  0  0  0  0
  1 32  1  0  0  0  0
  2  3  2  0  0  0  0
  2 33  1  0  0  0  0
  3  4  1  0  0  0  0
  3  6  1  0  0  0  0
  4  5  1  0  0  0  0
  5  9  1  0  0  0  0
  5 11  1  0  0  0  0
  5 34  1  0  0  0  0
  6  8  2  0  0  0  0
  6 35  1  0  0  0  0
  7  8  1  0  0  0  0
  7 36  1  0  0  0  0
  8 37  1  0  0  0  0
  9 10  2  0  0  0  0
  9 12  1  0  0  0  0
 11 13  1  0  0  0  0
 11 15  1  0  0  0  0
 11 38  1  0  0  0  0
 12 14  1  0  0  0  0
 12 16  1  0  0  0  0
 13 14  1  0  0  0  0
 13 17  1  0  0  0  0
 13 18  1  0  0  0  0
 14 20  1  0  0  0  0
 14 39  1  0  0  0  0
 15 40  1  0  0  0  0
 16 41  1  0  0  0  0
 16 42  1  0  0  0  0
 16 43  1  0  0  0  0
 17 44  1  0  0  0  0
 17 45  1  0  0  0  0
 18 19  1  0  0  0  0
 18 46  1  0  0  0  0
 18 47  1  0  0  0  0
 19 48  1  0  0  0  0
 20 21  1  0  0  0  0
 21 22  1  0  0  0  0
 21 49  1  0  0  0  0
 21 50  1  0  0  0  0
 22 23  2  0  0  0  0
 22 24  1  0  0  0  0
 24 25  1  0  0  0  0
 24 51  1  0  0  0  0
 25 26  2  0  0  0  0
 25 27  1  0  0  0  0
 26 28  1  0  0  0  0
 26 30  1  0  0  0  0
 27 29  2  0  0  0  0
 27 52  1  0  0  0  0
 28 53  1  0  0  0  0
 28 54  1  0  0  0  0
 28 55  1  0  0  0  0
 29 30  1  0  0  0  0
 29 56  1  0  0  0  0
 30 31  1  0  0  0  0
 31 57  1  0  0  0  0
 31 58  1  0  0  0  0
 31 59  1  0  0  0  0
M  END
> <rseq>
1

> <mseq>
264

> <S>
-6.546236

> <rmsd_refine>
1.161945

> <E_conf>
102.8893

> <E_score1>
-10.90019

> <E_refine>
-36.11869

> <E_score2>
-6.546236

>  <$File>
outputs/pdb_4j58_cleaned.pdb_2024_06_17__22_47_40_V2_BS398_MIN1_/SDF/sdf_db.sdf

> <Rec_index>
1

>  <PLIF_raw>
[[25,26,30,29,27],[823,823,823,823,823],[54,54,54,54,54],[10,10,10,10,10],[2.1,2.1,2.1,2.1,2.1]]

> <FP:PLIF>
2 5

>  <PLIF_ligidx>
[[25,26,30,29,27],[25,26,30,29,27]]

$$$$
240
  MOE2022           3D

 61 63  0  0  1  0  0  0  0  0999 V2000
    7.8600   20.5130   18.2490 C   0  0  0  0  0  0  0  0  0  0  0  0
    6.7430   20.0900   18.9630 C   0  0  0  0  0  0  0  0  0  0  0  0
    7.7000   21.1240   17.0100 C   0  0  0  0  0  0  0  0  0  0  0  0
    6.4240   21.3100   16.4830 C   0  0  0  0  0  0  0  0  0  0  0  0
    5.4680   20.2750   18.4350 C   0  0  0  0  0  0  0  0  0  0  0  0
    5.3000   20.8850   17.1910 C   0  0  0  0  0  0  0  0  0  0  0  0
    3.9100   21.0770   16.6110 C   0  0  0  0  0  0  0  0  0  0  0  0
    3.3620   19.8410   16.0270 N   0  0  0  0  0  0  0  0  0  0  0  0
    2.6890   18.9600   16.7930 C   0  0  0  0  0  0  0  0  0  0  0  0
    3.3550   19.7320   14.5660 C   0  0  0  0  0  0  0  0  0  0  0  0
    2.5200   17.5020   16.2900 C   0  0  2  0  0  0  0  0  0  0  0  0
    2.2610   19.2710   17.9010 O   0  0  0  0  0  0  0  0  0  0  0  0
    2.1750   17.4710   14.7890 C   0  0  1  0  0  0  0  0  0  0  0  0
    1.5220   16.7350   17.0860 N   0  3  0  0  0  0  0  0  0  0  0  0
    3.2310   18.2980   14.0450 C   0  0  0  0  0  0  0  0  0  0  0  0
    2.1950   16.0410   14.2430 C   0  0  0  0  0  0  0  0  0  0  0  0
    1.3500   15.7590   13.2430 N   0  0  0  0  0  0  0  0  0  0  0  0
    3.0020   15.2330   14.6930 O   0  0  0  0  0  0  0  0  0  0  0  0
    2.0190   16.4040   18.4400 C   0  0  0  0  0  0  0  0  0  0  0  0
    0.8950   15.8560   19.3200 C   0  0  0  0  0  0  0  0  0  0  0  0
    1.3400   15.8210   20.7840 C   0  0  0  0  0  0  0  0  0  0  0  0
    1.2720   14.4710   12.5600 C   0  0  0  0  0  0  0  0  0  0  0  0
    1.5350   14.6290   11.0580 C   0  0  0  0  0  0  0  0  0  0  0  0
    2.9670   15.0010   10.7090 C   0  0  0  0  0  0  0  0  0  0  0  0
    3.3120   16.3320   10.4710 C   0  0  0  0  0  0  0  0  0  0  0  0
    3.9690   14.0370   10.5950 C   0  0  0  0  0  0  0  0  0  0  0  0
    3.6660   12.7290   10.7980 F   0  0  0  0  0  0  0  0  0  0  0  0
    5.2800   14.3580   10.2600 C   0  0  0  0  0  0  0  0  0  0  0  0
    5.6010   15.6870   10.0110 C   0  0  0  0  0  0  0  0  0  0  0  0
    4.6180   16.6710   10.1180 C   0  0  0  0  0  0  0  0  0  0  0  0
    8.8310   20.3710   18.6500 H   0  0  0  0  0  0  0  0  0  0  0  0
    6.8650   19.6280   19.9080 H   0  0  0  0  0  0  0  0  0  0  0  0
    8.5510   21.4490   16.4690 H   0  0  0  0  0  0  0  0  0  0  0  0
    6.3110   21.7790   15.5400 H   0  0  0  0  0  0  0  0  0  0  0  0
    4.6230   19.9500   18.9860 H   0  0  0  0  0  0  0  0  0  0  0  0
    3.2500   21.4630   17.3760 H   0  0  0  0  0  0  0  0  0  0  0  0
    3.9330   21.8580   15.8620 H   0  0  0  0  0  0  0  0  0  0  0  0
    2.5310   20.3190   14.1820 H   0  0  0  0  0  0  0  0  0  0  0  0
    4.2470   20.1850   14.1540 H   0  0  0  0  0  0  0  0  0  0  0  0
    3.4860   17.0090   16.4040 H   0  0  0  0  0  0  0  0  0  0  0  0
    1.1910   17.9160   14.6340 H   0  0  0  0  0  0  0  0  0  0  0  0
    0.6900   17.3000   17.1770 H   0  0  0  0  0  0  0  0  0  0  0  0
    1.2920   15.8700   16.6140 H   0  0  0  0  0  0  0  0  0  0  0  0
    3.0040   18.3220   12.9780 H   0  0  0  0  0  0  0  0  0  0  0  0
    4.1920   17.8140   14.1790 H   0  0  0  0  0  0  0  0  0  0  0  0
    0.7320   16.4840   12.9100 H   0  0  0  0  0  0  0  0  0  0  0  0
    2.8320   15.6790   18.3740 H   0  0  0  0  0  0  0  0  0  0  0  0
    2.3980   17.3050   18.9200 H   0  0  0  0  0  0  0  0  0  0  0  0
    0.0280   16.5120   19.2400 H   0  0  0  0  0  0  0  0  0  0  0  0
    0.6130   14.8550   18.9950 H   0  0  0  0  0  0  0  0  0  0  0  0
    2.1560   15.1130   20.9170 H   0  0  0  0  0  0  0  0  0  0  0  0
    1.6750   16.8110   21.0880 H   0  0  0  0  0  0  0  0  0  0  0  0
    0.4990   15.5280   21.4090 H   0  0  0  0  0  0  0  0  0  0  0  0
    1.9860   13.7580   12.9780 H   0  0  0  0  0  0  0  0  0  0  0  0
    0.2670   14.0720   12.6940 H   0  0  0  0  0  0  0  0  0  0  0  0
    1.2890   13.6870   10.5680 H   0  0  0  0  0  0  0  0  0  0  0  0
    0.8560   15.3830   10.6570 H   0  0  0  0  0  0  0  0  0  0  0  0
    2.5770   17.0920   10.5470 H   0  0  0  0  0  0  0  0  0  0  0  0
    6.0180   13.6000   10.1870 H   0  0  0  0  0  0  0  0  0  0  0  0
    6.5900   15.9520    9.7410 H   0  0  0  0  0  0  0  0  0  0  0  0
    4.8610   17.6840    9.9250 H   0  0  0  0  0  0  0  0  0  0  0  0
  1  2  1  0  0  0  0
  1  3  2  0  0  0  0
  1 31  1  0  0  0  0
  2  5  2  0  0  0  0
  2 32  1  0  0  0  0
  3  4  1  0  0  0  0
  3 33  1  0  0  0  0
  4  6  2  0  0  0  0
  4 34  1  0  0  0  0
  5  6  1  0  0  0  0
  5 35  1  0  0  0  0
  6  7  1  0  0  0  0
  7  8  1  0  0  0  0
  7 36  1  0  0  0  0
  7 37  1  0  0  0  0
  8  9  1  0  0  0  0
  8 10  1  0  0  0  0
  9 11  1  0  0  0  0
  9 12  2  0  0  0  0
 10 15  1  0  0  0  0
 10 38  1  0  0  0  0
 10 39  1  0  0  0  0
 11 13  1  0  0  0  0
 11 14  1  0  0  0  0
 11 40  1  0  0  0  0
 13 15  1  0  0  0  0
 13 16  1  0  0  0  0
 13 41  1  0  0  0  0
 14 19  1  0  0  0  0
 14 42  1  0  0  0  0
 14 43  1  0  0  0  0
 15 44  1  0  0  0  0
 15 45  1  0  0  0  0
 16 17  1  0  0  0  0
 16 18  2  0  0  0  0
 17 22  1  0  0  0  0
 17 46  1  0  0  0  0
 19 20  1  0  0  0  0
 19 47  1  0  0  0  0
 19 48  1  0  0  0  0
 20 21  1  0  0  0  0
 20 49  1  0  0  0  0
 20 50  1  0  0  0  0
 21 51  1  0  0  0  0
 21 52  1  0  0  0  0
 21 53  1  0  0  0  0
 22 23  1  0  0  0  0
 22 54  1  0  0  0  0
 22 55  1  0  0  0  0
 23 24  1  0  0  0  0
 23 56  1  0  0  0  0
 23 57  1  0  0  0  0
 24 25  2  0  0  0  0
 24 26  1  0  0  0  0
 25 30  1  0  0  0  0
 25 58  1  0  0  0  0
 26 27  1  0  0  0  0
 26 28  2  0  0  0  0
 28 29  1  0  0  0  0
 28 59  1  0  0  0  0
 29 30  2  0  0  0  0
 29 60  1  0  0  0  0
 30 61  1  0  0  0  0
M  CHG  1  14   1
M  END
> <rseq>
1

> <mseq>
241

> <S>
-6.502799

> <rmsd_refine>
1.3646

> <E_conf>
-23.11877

> <E_score1>
-10.65269

> <E_refine>
-33.96242

> <E_score2>
-6.502799

>  <$File>
outputs/pdb_4j58_cleaned.pdb_2024_06_17__22_47_40_V2_BS398_MIN1_/SDF/sdf_db.sdf

> <Rec_index>
1

>  <PLIF_raw>
[[14,19,18],[1071,1617,1067],[71,110,71],[3,1,4],[0.5,0.5,0.5]]

> <FP:PLIF>
7 34 26

>  <PLIF_ligidx>
[14,18,19]

$$$$
241
  MOE2022           3D

 55 56  0  0  1  0  0  0  0  0999 V2000
    4.7390   14.4980   10.7430 C   0  0  0  0  0  0  0  0  0  0  0  0
    3.7610   14.9200   11.6350 C   0  0  0  0  0  0  0  0  0  0  0  0
    3.2660   16.2310   11.5590 C   0  0  0  0  0  0  0  0  0  0  0  0
    5.2540   13.2320   10.8550 O   0  0  0  0  0  0  0  0  0  0  0  0
    3.7370   17.0860   10.5460 C   0  0  0  0  0  0  0  0  0  0  0  0
    2.3030   16.6930   12.5500 C   0  0  0  0  0  0  0  0  0  0  0  0
    2.3670   18.0060   12.9460 N   0  0  0  0  0  0  0  0  0  0  0  0
    1.4780   15.9530   13.0830 O   0  0  0  0  0  0  0  0  0  0  0  0
    5.2060   15.3620    9.7500 C   0  0  0  0  0  0  0  0  0  0  0  0
    1.8220   18.4560   14.2390 C   0  0  1  0  0  0  0  0  0  0  0  0
    2.5610   17.8800   15.4390 C   0  0  0  0  0  0  0  0  0  0  0  0
    1.7650   19.9680   14.3960 C   0  0  0  0  0  0  0  0  0  0  0  0
    3.5430   17.1430   15.3250 O   0  0  0  0  0  0  0  0  0  0  0  0
    2.1540   20.7340   13.5130 O   0  0  0  0  0  0  0  0  0  0  0  0
    1.3690   20.4060   15.6120 N   0  0  0  0  0  0  0  0  0  0  0  0
    6.1650   14.9450    8.8820 O   0  0  0  0  0  0  0  0  0  0  0  0
    2.1550   18.3380   16.6390 N   0  0  0  0  0  0  0  0  0  0  0  0
    4.7010   16.6530    9.6420 C   0  0  0  0  0  0  0  0  0  0  0  0
    2.8620   17.9340   17.8460 C   0  0  1  0  0  0  0  0  0  0  0  0
    1.1950   19.4480   16.7120 C   0  0  0  0  0  0  0  0  0  0  0  0
    4.0900   18.8220   18.1370 C   0  0  0  0  0  0  0  0  0  0  0  0
    1.3200   21.8300   15.9520 C   0  0  0  0  0  0  0  0  0  0  0  0
    1.9560   17.8360   18.9650 O   0  0  0  0  0  0  0  0  0  0  0  0
    2.2190   16.7780   19.9130 C   0  0  0  0  0  0  0  0  0  0  0  0
    3.8230   20.2440   18.2260 O   0  0  0  0  0  0  0  0  0  0  0  0
    4.7800   21.1880   18.3620 C   0  0  0  0  0  0  0  0  0  0  0  0
    4.4150   22.3440   18.5740 O   0  0  0  0  0  0  0  0  0  0  0  0
    6.2880   20.8530   18.2880 C   0  0  0  0  0  0  0  0  0  0  0  0
    6.8580   20.5130   19.6710 C   0  0  0  0  0  0  0  0  0  0  0  0
    7.1130   21.9950   17.6700 C   0  0  0  0  0  0  0  0  0  0  0  0
    3.4060   14.2610   12.3850 H   0  0  0  0  0  0  0  0  0  0  0  0
    4.8920   12.7820   11.6470 H   0  0  0  0  0  0  0  0  0  0  0  0
    3.3550   18.0720   10.4640 H   0  0  0  0  0  0  0  0  0  0  0  0
    3.0950   18.6050   12.5300 H   0  0  0  0  0  0  0  0  0  0  0  0
    0.7990   18.1120   14.3220 H   0  0  0  0  0  0  0  0  0  0  0  0
    6.4040   14.0200    9.0910 H   0  0  0  0  0  0  0  0  0  0  0  0
    5.0460   17.2990    8.8760 H   0  0  0  0  0  0  0  0  0  0  0  0
    3.2290   16.9280   17.6910 H   0  0  0  0  0  0  0  0  0  0  0  0
    1.2970   19.9590   17.6610 H   0  0  0  0  0  0  0  0  0  0  0  0
    0.1860   19.0590   16.7060 H   0  0  0  0  0  0  0  0  0  0  0  0
    4.5500   18.5030   19.0710 H   0  0  0  0  0  0  0  0  0  0  0  0
    4.7930   18.6700   17.3200 H   0  0  0  0  0  0  0  0  0  0  0  0
    0.5290   22.0380   16.6600 H   0  0  0  0  0  0  0  0  0  0  0  0
    2.2500   22.1550   16.3990 H   0  0  0  0  0  0  0  0  0  0  0  0
    1.1390   22.4490   15.0830 H   0  0  0  0  0  0  0  0  0  0  0  0
    1.4790   16.8130   20.7130 H   0  0  0  0  0  0  0  0  0  0  0  0
    2.1550   15.8080   19.4170 H   0  0  0  0  0  0  0  0  0  0  0  0
    3.2120   16.8970   20.3460 H   0  0  0  0  0  0  0  0  0  0  0  0
    6.4320   19.9880   17.6440 H   0  0  0  0  0  0  0  0  0  0  0  0
    6.2630   19.7270   20.1310 H   0  0  0  0  0  0  0  0  0  0  0  0
    7.8870   20.1650   19.5700 H   0  0  0  0  0  0  0  0  0  0  0  0
    6.8420   21.3950   20.3100 H   0  0  0  0  0  0  0  0  0  0  0  0
    8.1560   21.6880   17.5730 H   0  0  0  0  0  0  0  0  0  0  0  0
    6.7230   22.2350   16.6800 H   0  0  0  0  0  0  0  0  0  0  0  0
    7.0610   22.8850   18.2980 H   0  0  0  0  0  0  0  0  0  0  0  0
  1  2  1  0  0  0  0
  1  4  1  0  0  0  0
  1  9  2  0  0  0  0
  2  3  2  0  0  0  0
  2 31  1  0  0  0  0
  3  5  1  0  0  0  0
  3  6  1  0  0  0  0
  4 32  1  0  0  0  0
  5 18  2  0  0  0  0
  5 33  1  0  0  0  0
  6  7  1  0  0  0  0
  6  8  2  0  0  0  0
  7 10  1  0  0  0  0
  7 34  1  0  0  0  0
  9 16  1  0  0  0  0
  9 18  1  0  0  0  0
 10 11  1  0  0  0  0
 10 12  1  0  0  0  0
 10 35  1  0  0  0  0
 11 13  2  0  0  0  0
 11 17  1  0  0  0  0
 12 14  2  0  0  0  0
 12 15  1  0  0  0  0
 15 20  1  0  0  0  0
 15 22  1  0  0  0  0
 16 36  1  0  0  0  0
 17 19  1  0  0  0  0
 17 20  1  0  0  0  0
 18 37  1  0  0  0  0
 19 21  1  0  0  0  0
 19 23  1  0  0  0  0
 19 38  1  0  0  0  0
 20 39  1  0  0  0  0
 20 40  1  0  0  0  0
 21 25  1  0  0  0  0
 21 41  1  0  0  0  0
 21 42  1  0  0  0  0
 22 43  1  0  0  0  0
 22 44  1  0  0  0  0
 22 45  1  0  0  0  0
 23 24  1  0  0  0  0
 24 46  1  0  0  0  0
 24 47  1  0  0  0  0
 24 48  1  0  0  0  0
 25 26  1  0  0  0  0
 26 27  2  0  0  0  0
 26 28  1  0  0  0  0
 28 29  1  0  0  0  0
 28 30  1  0  0  0  0
 28 49  1  0  0  0  0
 29 50  1  0  0  0  0
 29 51  1  0  0  0  0
 29 52  1  0  0  0  0
 30 53  1  0  0  0  0
 30 54  1  0  0  0  0
 30 55  1  0  0  0  0
M  END
> <rseq>
1

> <mseq>
242

> <S>
-6.109105

> <rmsd_refine>
1.384572

> <E_conf>
-37.78715

> <E_score1>
-11.28753

> <E_refine>
-31.47563

> <E_score2>
-6.109105

>  <$File>
outputs/pdb_4j58_cleaned.pdb_2024_06_17__22_47_40_V2_BS398_MIN1_/SDF/sdf_db.sdf

> <Rec_index>
1

>  <PLIF_raw>
[4,1056,70,3,3]

> <FP:PLIF>
3 4

>  <PLIF_ligidx>
[4,4]

$$$$
242
  MOE2022           3D

 55 57  0  0  1  0  0  0  0  0999 V2000
    1.4040   16.0610   20.4260 C   0  0  0  0  0  0  0  0  0  0  0  0
    0.0620   15.7300   20.2750 C   0  0  0  0  0  0  0  0  0  0  0  0
    2.1080   16.6140   19.3600 C   0  0  0  0  0  0  0  0  0  0  0  0
   -0.5720   15.9400   19.0570 C   0  0  0  0  0  0  0  0  0  0  0  0
    0.1280   16.5030   17.9950 C   0  0  0  0  0  0  0  0  0  0  0  0
    1.4690   16.8550   18.1400 C   0  0  0  0  0  0  0  0  0  0  0  0
    2.2020   17.4760   16.9600 C   0  0  1  0  0  0  0  0  0  0  0  0
    3.2130   18.4520   17.4030 N   0  0  0  0  0  0  0  0  0  0  0  0
    2.7670   16.4070   16.0300 C   0  0  0  0  0  0  0  0  0  0  0  0
    4.0140   19.1960   16.5690 C   0  0  0  0  0  0  0  0  0  0  0  0
    2.2080   16.3030   14.8140 N   0  0  0  0  0  0  0  0  0  0  0  0
    3.8480   19.0810   15.3560 O   0  0  0  0  0  0  0  0  0  0  0  0
    5.0200   20.0800   17.1740 C   0  0  0  0  0  0  0  0  0  0  0  0
    3.7090   15.6940   16.3710 O   0  0  0  0  0  0  0  0  0  0  0  0
    2.7480   15.4670   13.7500 C   0  0  1  0  0  0  0  0  0  0  0  0
    1.7710   14.4080   13.2460 C   0  0  0  0  0  0  0  0  0  0  0  0
    3.0140   16.2530   12.4740 C   0  0  0  0  0  0  0  0  0  0  0  0
    5.4640   19.8610   18.4890 C   0  0  0  0  0  0  0  0  0  0  0  0
    2.3340   14.0800   11.8550 C   0  0  0  0  0  0  0  0  0  0  0  0
    5.5870   21.1650   16.4680 C   0  0  0  0  0  0  0  0  0  0  0  0
    3.1810   15.2100   11.4770 N   0  0  0  0  0  0  0  0  0  0  0  0
    6.4270   20.6940   19.0510 C   0  0  0  0  0  0  0  0  0  0  0  0
    5.2070   21.4540   15.1880 O   0  0  0  0  0  0  0  0  0  0  0  0
    4.1870   15.1910   10.5790 C   0  0  0  0  0  0  0  0  0  0  0  0
    6.8520   20.4630   20.3250 O   0  0  0  0  0  0  0  0  0  0  0  0
    4.9180   16.1670   10.4030 O   0  0  0  0  0  0  0  0  0  0  0  0
    6.5530   21.9940   17.0400 C   0  0  0  0  0  0  0  0  0  0  0  0
    6.9760   21.7600   18.3410 C   0  0  0  0  0  0  0  0  0  0  0  0
    4.4260   13.9030    9.7730 C   0  0  0  0  0  0  0  0  0  0  0  0
    5.6100   13.9890    8.8000 C   0  0  0  0  0  0  0  0  0  0  0  0
    1.8930   15.8930   21.3510 H   0  0  0  0  0  0  0  0  0  0  0  0
   -0.4820   15.3220   21.0850 H   0  0  0  0  0  0  0  0  0  0  0  0
    3.1320   16.8500   19.4860 H   0  0  0  0  0  0  0  0  0  0  0  0
   -1.5920   15.6790   18.9380 H   0  0  0  0  0  0  0  0  0  0  0  0
   -0.3680   16.6640   17.0720 H   0  0  0  0  0  0  0  0  0  0  0  0
    1.4660   18.0380   16.3990 H   0  0  0  0  0  0  0  0  0  0  0  0
    3.2750   18.6140   18.4190 H   0  0  0  0  0  0  0  0  0  0  0  0
    1.4340   16.9050   14.5780 H   0  0  0  0  0  0  0  0  0  0  0  0
    3.6700   14.9750   14.0590 H   0  0  0  0  0  0  0  0  0  0  0  0
    1.7680   13.5320   13.8910 H   0  0  0  0  0  0  0  0  0  0  0  0
    0.7690   14.8290   13.1510 H   0  0  0  0  0  0  0  0  0  0  0  0
    2.1530   16.8720   12.2190 H   0  0  0  0  0  0  0  0  0  0  0  0
    3.8980   16.8760   12.5880 H   0  0  0  0  0  0  0  0  0  0  0  0
    5.0770   19.0590   19.0630 H   0  0  0  0  0  0  0  0  0  0  0  0
    2.9240   13.1670   11.9170 H   0  0  0  0  0  0  0  0  0  0  0  0
    1.5220   13.9480   11.1390 H   0  0  0  0  0  0  0  0  0  0  0  0
    4.5160   20.8220   14.8940 H   0  0  0  0  0  0  0  0  0  0  0  0
    6.5200   19.6010   20.6430 H   0  0  0  0  0  0  0  0  0  0  0  0
    6.9610   22.7990   16.4840 H   0  0  0  0  0  0  0  0  0  0  0  0
    7.7100   22.3790   18.7890 H   0  0  0  0  0  0  0  0  0  0  0  0
    4.6200   13.0840   10.4650 H   0  0  0  0  0  0  0  0  0  0  0  0
    3.5230   13.6690    9.2080 H   0  0  0  0  0  0  0  0  0  0  0  0
    6.5270   14.1930    9.3550 H   0  0  0  0  0  0  0  0  0  0  0  0
    5.7170   13.0430    8.2700 H   0  0  0  0  0  0  0  0  0  0  0  0
    5.4390   14.7880    8.0780 H   0  0  0  0  0  0  0  0  0  0  0  0
  1  2  2  0  0  0  0
  1  3  1  0  0  0  0
  1 31  1  0  0  0  0
  2  4  1  0  0  0  0
  2 32  1  0  0  0  0
  3  6  2  0  0  0  0
  3 33  1  0  0  0  0
  4  5  2  0  0  0  0
  4 34  1  0  0  0  0
  5  6  1  0  0  0  0
  5 35  1  0  0  0  0
  6  7  1  0  0  0  0
  7  8  1  0  0  0  0
  7  9  1  0  0  0  0
  7 36  1  0  0  0  0
  8 10  1  0  0  0  0
  8 37  1  0  0  0  0
  9 11  1  0  0  0  0
  9 14  2  0  0  0  0
 10 12  2  0  0  0  0
 10 13  1  0  0  0  0
 11 15  1  0  0  0  0
 11 38  1  0  0  0  0
 13 18  2  0  0  0  0
 13 20  1  0  0  0  0
 15 16  1  0  0  0  0
 15 17  1  0  0  0  0
 15 39  1  0  0  0  0
 16 19  1  0  0  0  0
 16 40  1  0  0  0  0
 16 41  1  0  0  0  0
 17 21  1  0  0  0  0
 17 42  1  0  0  0  0
 17 43  1  0  0  0  0
 18 22  1  0  0  0  0
 18 44  1  0  0  0  0
 19 21  1  0  0  0  0
 19 45  1  0  0  0  0
 19 46  1  0  0  0  0
 20 23  1  0  0  0  0
 20 27  2  0  0  0  0
 21 24  1  0  0  0  0
 22 25  1  0  0  0  0
 22 28  2  0  0  0  0
 23 47  1  0  0  0  0
 24 26  2  0  0  0  0
 24 29  1  0  0  0  0
 25 48  1  0  0  0  0
 27 28  1  0  0  0  0
 27 49  1  0  0  0  0
 28 50  1  0  0  0  0
 29 30  1  0  0  0  0
 29 51  1  0  0  0  0
 29 52  1  0  0  0  0
 30 53  1  0  0  0  0
 30 54  1  0  0  0  0
 30 55  1  0  0  0  0
M  END
> <rseq>
1

> <mseq>
243

> <S>
-6.954757

> <rmsd_refine>
1.569016

> <E_conf>
-12.56872

> <E_score1>
-9.207799

> <E_refine>
-41.26916

> <E_score2>
-6.954757

>  <$File>
outputs/pdb_4j58_cleaned.pdb_2024_06_17__22_47_40_V2_BS398_MIN1_/SDF/sdf_db.sdf

> <Rec_index>
1

>  <PLIF_raw>
[[14,26,1,3,6,5,4,2],[954,823,1519,1519,1519,1519,1519,1519],[62,54,102,102,102,102,102,102],[2,2,10,10,10,10,10,10],[1.4,2.3,0.7,0.7,0.7,0.7,0.7,0.7]]

> <FP:PLIF>
6 19 20 22

>  <PLIF_ligidx>
[26,26,14,[1,3,6,5,4,2]]

$$$$
243
  MOE2022           3D

 55 57  0  0  1  0  0  0  0  0999 V2000
    2.4120   16.3720   20.6560 C   0  0  0  0  0  0  0  0  0  0  0  0
    1.1210   15.8660   20.7120 C   0  0  0  0  0  0  0  0  0  0  0  0
    2.8480   17.0470   19.5220 C   0  0  0  0  0  0  0  0  0  0  0  0
    0.2670   16.0240   19.6280 C   0  0  0  0  0  0  0  0  0  0  0  0
    0.7050   16.6940   18.4890 C   0  0  0  0  0  0  0  0  0  0  0  0
    1.9970   17.2150   18.4260 C   0  0  0  0  0  0  0  0  0  0  0  0
    2.4420   17.9260   17.1540 C   0  0  1  0  0  0  0  0  0  0  0  0
    3.5370   18.8830   17.3780 N   0  0  0  0  0  0  0  0  0  0  0  0
    2.7960   16.9390   16.0480 C   0  0  0  0  0  0  0  0  0  0  0  0
    3.8960   19.8520   16.4680 C   0  0  0  0  0  0  0  0  0  0  0  0
    2.1470   17.0820   14.8820 N   0  0  0  0  0  0  0  0  0  0  0  0
    3.1040   20.0850   15.5550 O   0  0  0  0  0  0  0  0  0  0  0  0
    5.1970   20.5270   16.6180 C   0  0  0  0  0  0  0  0  0  0  0  0
    3.6830   16.0970   16.1900 O   0  0  0  0  0  0  0  0  0  0  0  0
    2.5800   16.4420   13.6470 C   0  0  1  0  0  0  0  0  0  0  0  0
    2.1410   14.9820   13.5470 C   0  0  0  0  0  0  0  0  0  0  0  0
    2.0040   17.0850   12.3810 C   0  0  0  0  0  0  0  0  0  0  0  0
    6.0360   20.2360   17.7090 C   0  0  0  0  0  0  0  0  0  0  0  0
    2.0880   14.7120   12.0450 C   0  0  0  0  0  0  0  0  0  0  0  0
    5.6750   21.4580   15.6710 C   0  0  0  0  0  0  0  0  0  0  0  0
    1.8210   16.0120   11.3380 N   0  3  2  0  0  0  0  0  0  0  0  0
    7.2920   20.8240   17.8350 C   0  0  0  0  0  0  0  0  0  0  0  0
    4.9430   21.8050   14.5740 O   0  0  0  0  0  0  0  0  0  0  0  0
    2.6630   16.2120   10.1250 C   0  0  0  0  0  0  0  0  0  0  0  0
    4.1480   16.4580   10.4210 C   0  0  0  0  0  0  0  0  0  0  0  0
    7.7370   21.7290   16.8730 C   0  0  0  0  0  0  0  0  0  0  0  0
    8.1860   20.4630   18.9990 C   0  0  0  0  0  0  0  0  0  0  0  0
    6.9280   22.0530   15.7940 C   0  0  0  0  0  0  0  0  0  0  0  0
    4.8760   15.4610   10.6140 O   0  5  0  0  0  0  0  0  0  0  0  0
    4.5200   17.6490   10.4860 O   0  0  0  0  0  0  0  0  0  0  0  0
    3.0660   16.2410   21.4790 H   0  0  0  0  0  0  0  0  0  0  0  0
    0.7930   15.3630   21.5800 H   0  0  0  0  0  0  0  0  0  0  0  0
    3.8320   17.4320   19.5040 H   0  0  0  0  0  0  0  0  0  0  0  0
   -0.7180   15.6360   19.6660 H   0  0  0  0  0  0  0  0  0  0  0  0
    0.0470   16.8050   17.6650 H   0  0  0  0  0  0  0  0  0  0  0  0
    1.5890   18.5030   16.8190 H   0  0  0  0  0  0  0  0  0  0  0  0
    4.2040   18.6470   18.1260 H   0  0  0  0  0  0  0  0  0  0  0  0
    1.4340   17.7930   14.8120 H   0  0  0  0  0  0  0  0  0  0  0  0
    3.6650   16.4920   13.5580 H   0  0  0  0  0  0  0  0  0  0  0  0
    2.8440   14.3180   14.0450 H   0  0  0  0  0  0  0  0  0  0  0  0
    1.1410   14.8620   13.9670 H   0  0  0  0  0  0  0  0  0  0  0  0
    1.0600   17.5500   12.6310 H   0  0  0  0  0  0  0  0  0  0  0  0
    2.6410   17.9000   12.0620 H   0  0  0  0  0  0  0  0  0  0  0  0
    5.7250   19.5490   18.4530 H   0  0  0  0  0  0  0  0  0  0  0  0
    3.0390   14.2900   11.7470 H   0  0  0  0  0  0  0  0  0  0  0  0
    1.3610   13.9430   11.8230 H   0  0  0  0  0  0  0  0  0  0  0  0
    0.8440   16.0130   11.0820 H   0  0  0  0  0  0  0  0  0  0  0  0
    4.0680   21.3620   14.6030 H   0  0  0  0  0  0  0  0  0  0  0  0
    2.5780   15.3360    9.4810 H   0  0  0  0  0  0  0  0  0  0  0  0
    2.2870   17.0760    9.5770 H   0  0  0  0  0  0  0  0  0  0  0  0
    8.6960   22.1730   16.9640 H   0  0  0  0  0  0  0  0  0  0  0  0
    8.8360   21.2980   19.2620 H   0  0  0  0  0  0  0  0  0  0  0  0
    7.5950   20.2040   19.8770 H   0  0  0  0  0  0  0  0  0  0  0  0
    8.8120   19.6100   18.7400 H   0  0  0  0  0  0  0  0  0  0  0  0
    7.2630   22.7470   15.0670 H   0  0  0  0  0  0  0  0  0  0  0  0
  1  2  2  0  0  0  0
  1  3  1  0  0  0  0
  1 31  1  0  0  0  0
  2  4  1  0  0  0  0
  2 32  1  0  0  0  0
  3  6  2  0  0  0  0
  3 33  1  0  0  0  0
  4  5  2  0  0  0  0
  4 34  1  0  0  0  0
  5  6  1  0  0  0  0
  5 35  1  0  0  0  0
  6  7  1  0  0  0  0
  7  8  1  0  0  0  0
  7  9  1  0  0  0  0
  7 36  1  0  0  0  0
  8 10  1  0  0  0  0
  8 37  1  0  0  0  0
  9 11  1  0  0  0  0
  9 14  2  0  0  0  0
 10 12  2  0  0  0  0
 10 13  1  0  0  0  0
 11 15  1  0  0  0  0
 11 38  1  0  0  0  0
 13 18  1  0  0  0  0
 13 20  2  0  0  0  0
 15 16  1  0  0  0  0
 15 17  1  0  0  0  0
 15 39  1  0  0  0  0
 16 19  1  0  0  0  0
 16 40  1  0  0  0  0
 16 41  1  0  0  0  0
 17 21  1  0  0  0  0
 17 42  1  0  0  0  0
 17 43  1  0  0  0  0
 18 22  2  0  0  0  0
 18 44  1  0  0  0  0
 19 21  1  0  0  0  0
 19 45  1  0  0  0  0
 19 46  1  0  0  0  0
 20 23  1  0  0  0  0
 20 28  1  0  0  0  0
 21 24  1  0  0  0  0
 21 47  1  0  0  0  0
 22 26  1  0  0  0  0
 22 27  1  0  0  0  0
 23 48  1  0  0  0  0
 24 25  1  0  0  0  0
 24 49  1  0  0  0  0
 24 50  1  0  0  0  0
 25 29  1  0  0  0  0
 25 30  2  0  0  0  0
 26 28  2  0  0  0  0
 26 51  1  0  0  0  0
 27 52  1  0  0  0  0
 27 53  1  0  0  0  0
 27 54  1  0  0  0  0
 28 55  1  0  0  0  0
M  CHG  1  21   1
M  CHG  1  29  -1
M  END
> <rseq>
1

> <mseq>
244

> <S>
-6.679121

> <rmsd_refine>
1.591507

> <E_conf>
24.40757

> <E_score1>
-10.20786

> <E_refine>
-36.50499

> <E_score2>
-6.679121

>  <$File>
outputs/pdb_4j58_cleaned.pdb_2024_06_17__22_47_40_V2_BS398_MIN1_/SDF/sdf_db.sdf

> <Rec_index>
1

>  <PLIF_raw>
[[14,29,30,29,30,30,1,3,6,5,4,2],[954,823,823,823,823,829,1519,1519,1519,1519,1519,1519],[62,54,54,54,54,54,102,102,102,102,102,102],[2,2,2,7,7,7,10,10,10,10,10,10],[2.3,1.7,1.4,3.451092011,4.450352864,3.178984421,0.6,0.6,0.6,0.6,0.6,0.6]]

> <FP:PLIF>
6 19 1 16 20 23 22

>  <PLIF_ligidx>
[[29,30],29,[29,30,30],30,14,14,[1,3,6,5,4,2]]

$$$$
244
  MOE2022           3D

 60 62  0  0  1  0  0  0  0  0999 V2000
    2.3810   16.3920   20.6750 C   0  0  0  0  0  0  0  0  0  0  0  0
    1.0730   15.9310   20.7430 C   0  0  0  0  0  0  0  0  0  0  0  0
    2.8420   17.0150   19.5210 C   0  0  0  0  0  0  0  0  0  0  0  0
    0.2290   16.0790   19.6490 C   0  0  0  0  0  0  0  0  0  0  0  0
    0.6920   16.6940   18.4900 C   0  0  0  0  0  0  0  0  0  0  0  0
    2.0020   17.1700   18.4150 C   0  0  0  0  0  0  0  0  0  0  0  0
    2.4780   17.8080   17.1170 C   0  0  1  0  0  0  0  0  0  0  0  0
    3.5750   18.7720   17.3100 N   0  0  0  0  0  0  0  0  0  0  0  0
    2.8220   16.7490   16.0730 C   0  0  0  0  0  0  0  0  0  0  0  0
    4.0100   19.6460   16.3390 C   0  0  0  0  0  0  0  0  0  0  0  0
    2.1960   16.8520   14.8920 N   0  0  0  0  0  0  0  0  0  0  0  0
    3.3560   19.7030   15.2980 O   0  0  0  0  0  0  0  0  0  0  0  0
    5.2280   20.4380   16.5800 C   0  0  0  0  0  0  0  0  0  0  0  0
    3.6550   15.8690   16.2840 O   0  0  0  0  0  0  0  0  0  0  0  0
    2.4260   15.9600   13.7640 C   0  0  1  0  0  0  0  0  0  0  0  0
    1.3880   14.8390   13.7140 C   0  0  0  0  0  0  0  0  0  0  0  0
    2.3080   16.6650   12.4070 C   0  0  0  0  0  0  0  0  0  0  0  0
    6.0490   20.1740   17.6910 C   0  0  0  0  0  0  0  0  0  0  0  0
    1.1990   14.5470   12.2280 C   0  0  0  0  0  0  0  0  0  0  0  0
    5.6490   21.4570   15.6970 C   0  0  0  0  0  0  0  0  0  0  0  0
    1.5470   15.7820   11.4570 N   0  3  2  0  0  0  0  0  0  0  0  0
    7.2390   20.8670   17.8940 C   0  0  0  0  0  0  0  0  0  0  0  0
    4.9210   21.7940   14.5950 O   0  0  0  0  0  0  0  0  0  0  0  0
    2.2570   15.5150   10.1600 C   0  0  0  0  0  0  0  0  0  0  0  0
    3.6360   14.9070   10.2840 C   0  0  0  0  0  0  0  0  0  0  0  0
    7.6320   21.8560   16.9940 C   0  0  0  0  0  0  0  0  0  0  0  0
    8.1200   20.5290   19.0750 C   0  0  0  0  0  0  0  0  0  0  0  0
    4.7400   15.5300    9.8500 C   0  0  0  0  0  0  0  0  0  0  0  0
    6.1150   14.9130    9.9390 C   0  0  0  0  0  0  0  0  0  0  0  0
    6.8360   22.1570   15.8990 C   0  0  0  0  0  0  0  0  0  0  0  0
    3.0280   16.2680   21.5040 H   0  0  0  0  0  0  0  0  0  0  0  0
    0.7250   15.4700   21.6260 H   0  0  0  0  0  0  0  0  0  0  0  0
    3.8370   17.3680   19.4940 H   0  0  0  0  0  0  0  0  0  0  0  0
   -0.7690   15.7250   19.6970 H   0  0  0  0  0  0  0  0  0  0  0  0
    0.0420   16.7960   17.6600 H   0  0  0  0  0  0  0  0  0  0  0  0
    1.6400   18.3790   16.7370 H   0  0  0  0  0  0  0  0  0  0  0  0
    4.0970   18.7140   18.1960 H   0  0  0  0  0  0  0  0  0  0  0  0
    1.5410   17.6090   14.7610 H   0  0  0  0  0  0  0  0  0  0  0  0
    3.4230   15.5190   13.8090 H   0  0  0  0  0  0  0  0  0  0  0  0
    1.7300   13.9560   14.2480 H   0  0  0  0  0  0  0  0  0  0  0  0
    0.4390   15.1850   14.1260 H   0  0  0  0  0  0  0  0  0  0  0  0
    1.8120   17.6160   12.5470 H   0  0  0  0  0  0  0  0  0  0  0  0
    3.2980   16.9190   12.0520 H   0  0  0  0  0  0  0  0  0  0  0  0
    5.7780   19.4220   18.3850 H   0  0  0  0  0  0  0  0  0  0  0  0
    1.8490   13.7220   11.9650 H   0  0  0  0  0  0  0  0  0  0  0  0
    0.1970   14.1840   12.0370 H   0  0  0  0  0  0  0  0  0  0  0  0
    0.6790   16.2540   11.2410 H   0  0  0  0  0  0  0  0  0  0  0  0
    4.0930   21.2690   14.5680 H   0  0  0  0  0  0  0  0  0  0  0  0
    1.6650   14.8710    9.5230 H   0  0  0  0  0  0  0  0  0  0  0  0
    2.3480   16.4260    9.5840 H   0  0  0  0  0  0  0  0  0  0  0  0
    3.6840   13.9450   10.7260 H   0  0  0  0  0  0  0  0  0  0  0  0
    8.5410   22.3810   17.1430 H   0  0  0  0  0  0  0  0  0  0  0  0
    8.7290   21.3860   19.3630 H   0  0  0  0  0  0  0  0  0  0  0  0
    7.5180   20.2350   19.9350 H   0  0  0  0  0  0  0  0  0  0  0  0
    8.7860   19.7050   18.8210 H   0  0  0  0  0  0  0  0  0  0  0  0
    4.6940   16.4880    9.3960 H   0  0  0  0  0  0  0  0  0  0  0  0
    6.4660   14.6160    8.9620 H   0  0  0  0  0  0  0  0  0  0  0  0
    6.8300   15.6150   10.3410 H   0  0  0  0  0  0  0  0  0  0  0  0
    6.1280   14.0340   10.5690 H   0  0  0  0  0  0  0  0  0  0  0  0
    7.1300   22.9150   15.2190 H   0  0  0  0  0  0  0  0  0  0  0  0
  1  2  2  0  0  0  0
  1  3  1  0  0  0  0
  1 31  1  0  0  0  0
  2  4  1  0  0  0  0
  2 32  1  0  0  0  0
  3  6  2  0  0  0  0
  3 33  1  0  0  0  0
  4  5  2  0  0  0  0
  4 34  1  0  0  0  0
  5  6  1  0  0  0  0
  5 35  1  0  0  0  0
  6  7  1  0  0  0  0
  7  8  1  0  0  0  0
  7  9  1  0  0  0  0
  7 36  1  0  0  0  0
  8 10  1  0  0  0  0
  8 37  1  0  0  0  0
  9 11  1  0  0  0  0
  9 14  2  0  0  0  0
 10 12  2  0  0  0  0
 10 13  1  0  0  0  0
 11 15  1  0  0  0  0
 11 38  1  0  0  0  0
 13 18  1  0  0  0  0
 13 20  2  0  0  0  0
 15 16  1  0  0  0  0
 15 17  1  0  0  0  0
 15 39  1  0  0  0  0
 16 19  1  0  0  0  0
 16 40  1  0  0  0  0
 16 41  1  0  0  0  0
 17 21  1  0  0  0  0
 17 42  1  0  0  0  0
 17 43  1  0  0  0  0
 18 22  2  0  0  0  0
 18 44  1  0  0  0  0
 19 21  1  0  0  0  0
 19 45  1  0  0  0  0
 19 46  1  0  0  0  0
 20 23  1  0  0  0  0
 20 30  1  0  0  0  0
 21 24  1  0  0  0  0
 21 47  1  0  0  0  0
 22 26  1  0  0  0  0
 22 27  1  0  0  0  0
 23 48  1  0  0  0  0
 24 25  1  0  0  0  0
 24 49  1  0  0  0  0
 24 50  1  0  0  0  0
 25 28  2  0  0  0  0
 25 51  1  0  0  0  0
 26 30  2  0  0  0  0
 26 52  1  0  0  0  0
 27 53  1  0  0  0  0
 27 54  1  0  0  0  0
 27 55  1  0  0  0  0
 28 29  1  0  0  0  0
 28 56  1  0  0  0  0
 29 57  1  0  0  0  0
 29 58  1  0  0  0  0
 29 59  1  0  0  0  0
 30 60  1  0  0  0  0
M  CHG  1  21   1
M  END
> <rseq>
1

> <mseq>
245

> <S>
-7.144307

> <rmsd_refine>
1.544507

> <E_conf>
14.7663

> <E_score1>
-9.773363

> <E_refine>
-37.71734

> <E_score2>
-7.144307

>  <$File>
outputs/pdb_4j58_cleaned.pdb_2024_06_17__22_47_40_V2_BS398_MIN1_/SDF/sdf_db.sdf

> <Rec_index>
1

>  <PLIF_raw>
[[14,1,3,6,5,4,2],[954,1519,1519,1519,1519,1519,1519],[62,102,102,102,102,102,102],[2,10,10,10,10,10,10],[1.8,0.5,0.5,0.5,0.5,0.5,0.5]]

> <FP:PLIF>
20 23 22

>  <PLIF_ligidx>
[14,14,[1,3,6,5,4,2]]

$$$$
245
  MOE2022           3D

 51 53  0  0  1  0  0  0  0  0999 V2000
    8.3800   20.7380   18.5760 C   0  0  0  0  0  0  0  0  0  0  0  0
    8.4240   21.9610   17.9150 C   0  0  0  0  0  0  0  0  0  0  0  0
    7.1600   20.1020   18.7850 C   0  0  0  0  0  0  0  0  0  0  0  0
    5.9760   20.6830   18.3310 C   0  0  0  0  0  0  0  0  0  0  0  0
    6.0280   21.9080   17.6650 C   0  0  0  0  0  0  0  0  0  0  0  0
    7.2470   22.5460   17.4600 C   0  0  0  0  0  0  0  0  0  0  0  0
    4.6460   19.9860   18.5520 C   0  0  0  0  0  0  0  0  0  0  0  0
    4.1660   19.1240   17.3830 C   0  0  0  0  0  0  0  0  0  0  0  0
    3.0660   18.2260   17.4820 N   0  0  0  0  0  0  0  0  0  0  0  0
    2.6700   17.6340   18.7130 C   0  0  0  0  0  0  0  0  0  0  0  0
    2.3400   17.8820   16.2260 C   0  0  2  0  0  0  0  0  0  0  0  0
    4.6780   19.2780   16.2910 O   0  0  0  0  0  0  0  0  0  0  0  0
    0.9680   18.5910   16.2240 C   0  0  1  0  0  0  0  0  0  0  0  0
    1.2970   17.2010   19.0370 C   0  0  0  0  0  0  0  0  0  0  0  0
    2.3530   16.3550   15.9410 C   0  0  0  0  0  0  0  0  0  0  0  0
    1.0460   16.6670   20.1060 O   0  0  0  0  0  0  0  0  0  0  0  0
    3.5530   17.4430   19.5390 O   0  0  0  0  0  0  0  0  0  0  0  0
    0.5490   18.8970   14.9100 O   0  0  0  0  0  0  0  0  0  0  0  0
   -0.1260   17.7910   16.9160 C   0  0  0  0  0  0  0  0  0  0  0  0
    1.8040   15.8910   14.5790 C   0  0  0  0  0  0  0  0  0  0  0  0
    2.8410   15.5860   13.6080 O   0  0  0  0  0  0  0  0  0  0  0  0
    3.1950   16.3430   12.5000 C   0  0  0  0  0  0  0  0  0  0  0  0
    0.2110   17.3480   18.2420 O   0  0  0  0  0  0  0  0  0  0  0  0
    3.8590   15.7090   11.4450 C   0  0  0  0  0  0  0  0  0  0  0  0
    2.9290   17.7130   12.4310 C   0  0  0  0  0  0  0  0  0  0  0  0
    4.1080   14.3550   11.4920 O   0  0  0  0  0  0  0  0  0  0  0  0
    4.2830   16.4560   10.3440 C   0  0  0  0  0  0  0  0  0  0  0  0
    3.3430   18.4460   11.3180 C   0  0  0  0  0  0  0  0  0  0  0  0
    4.9720   15.8510    9.3280 O   0  0  0  0  0  0  0  0  0  0  0  0
    4.0240   17.8220   10.2730 C   0  0  0  0  0  0  0  0  0  0  0  0
    9.2760   20.2910   18.9190 H   0  0  0  0  0  0  0  0  0  0  0  0
    9.3520   22.4440   17.7580 H   0  0  0  0  0  0  0  0  0  0  0  0
    7.1360   19.1710   19.2900 H   0  0  0  0  0  0  0  0  0  0  0  0
    5.1360   22.3580   17.3110 H   0  0  0  0  0  0  0  0  0  0  0  0
    7.2810   23.4770   16.9550 H   0  0  0  0  0  0  0  0  0  0  0  0
    4.7140   19.4470   19.4810 H   0  0  0  0  0  0  0  0  0  0  0  0
    3.8930   20.7380   18.7350 H   0  0  0  0  0  0  0  0  0  0  0  0
    2.8630   18.3120   15.3860 H   0  0  0  0  0  0  0  0  0  0  0  0
    1.0860   19.5380   16.7520 H   0  0  0  0  0  0  0  0  0  0  0  0
    3.3780   15.9930   16.0340 H   0  0  0  0  0  0  0  0  0  0  0  0
    1.7730   15.8580   16.7120 H   0  0  0  0  0  0  0  0  0  0  0  0
   -0.2090   19.4870   14.9530 H   0  0  0  0  0  0  0  0  0  0  0  0
   -1.0220   18.4090   16.9840 H   0  0  0  0  0  0  0  0  0  0  0  0
   -0.3680   16.9140   16.3160 H   0  0  0  0  0  0  0  0  0  0  0  0
    1.2530   14.9650   14.7450 H   0  0  0  0  0  0  0  0  0  0  0  0
    1.1010   16.6090   14.1610 H   0  0  0  0  0  0  0  0  0  0  0  0
    2.4240   18.2060   13.2170 H   0  0  0  0  0  0  0  0  0  0  0  0
    3.7720   13.9750   12.3300 H   0  0  0  0  0  0  0  0  0  0  0  0
    3.1400   19.4850   11.2680 H   0  0  0  0  0  0  0  0  0  0  0  0
    5.0260   14.8910    9.5070 H   0  0  0  0  0  0  0  0  0  0  0  0
    4.3420   18.3830    9.4320 H   0  0  0  0  0  0  0  0  0  0  0  0
  1  2  2  0  0  0  0
  1  3  1  0  0  0  0
  1 31  1  0  0  0  0
  2  6  1  0  0  0  0
  2 32  1  0  0  0  0
  3  4  2  0  0  0  0
  3 33  1  0  0  0  0
  4  5  1  0  0  0  0
  4  7  1  0  0  0  0
  5  6  2  0  0  0  0
  5 34  1  0  0  0  0
  6 35  1  0  0  0  0
  7  8  1  0  0  0  0
  7 36  1  0  0  0  0
  7 37  1  0  0  0  0
  8  9  1  0  0  0  0
  8 12  2  0  0  0  0
  9 10  1  0  0  0  0
  9 11  1  0  0  0  0
 10 14  1  0  0  0  0
 10 17  2  0  0  0  0
 11 13  1  0  0  0  0
 11 15  1  0  0  0  0
 11 38  1  0  0  0  0
 13 18  1  0  0  0  0
 13 19  1  0  0  0  0
 13 39  1  0  0  0  0
 14 16  2  0  0  0  0
 14 23  1  0  0  0  0
 15 20  1  0  0  0  0
 15 40  1  0  0  0  0
 15 41  1  0  0  0  0
 18 42  1  0  0  0  0
 19 23  1  0  0  0  0
 19 43  1  0  0  0  0
 19 44  1  0  0  0  0
 20 21  1  0  0  0  0
 20 45  1  0  0  0  0
 20 46  1  0  0  0  0
 21 22  1  0  0  0  0
 22 24  1  0  0  0  0
 22 25  2  0  0  0  0
 24 26  1  0  0  0  0
 24 27  2  0  0  0  0
 25 28  1  0  0  0  0
 25 47  1  0  0  0  0
 26 48  1  0  0  0  0
 27 29  1  0  0  0  0
 27 30  1  0  0  0  0
 28 30  2  0  0  0  0
 28 49  1  0  0  0  0
 29 50  1  0  0  0  0
 30 51  1  0  0  0  0
M  END
> <rseq>
1

> <mseq>
246

> <S>
-6.508334

> <rmsd_refine>
0.9323308

> <E_conf>
64.64557

> <E_score1>
-9.272969

> <E_refine>
-35.4876

> <E_score2>
-6.508334

>  <$File>
outputs/pdb_4j58_cleaned.pdb_2024_06_17__22_47_40_V2_BS398_MIN1_/SDF/sdf_db.sdf

> <Rec_index>
1

>  <PLIF_raw>
[26,1056,70,3,0.5]

> <FP:PLIF>
3

>  <PLIF_ligidx>
26

$$$$
246
  MOE2022           3D

 53 55  0  0  1  0  0  0  0  0999 V2000
    3.5900   17.7330   19.5680 O   0  0  0  0  0  0  0  0  0  0  0  0
    2.6530   17.3360   18.8640 C   0  0  0  0  0  0  0  0  0  0  0  0
    1.5710   16.5190   19.3420 C   0  0  0  0  0  0  0  0  0  0  0  0
    2.6390   17.6810   17.5090 N   0  0  0  0  0  0  0  0  0  0  0  0
    0.5940   16.1330   18.4740 C   0  0  0  0  0  0  0  0  0  0  0  0
    1.6280   17.1960   16.6630 C   0  0  0  0  0  0  0  0  0  0  0  0
    0.6530   16.4800   17.1430 N   0  0  0  0  0  0  0  0  0  0  0  0
    1.7290   17.4880   15.2420 C   0  0  0  0  0  0  0  0  0  0  0  0
    3.7090   18.5630   16.9670 C   0  0  0  0  0  0  0  0  0  0  0  0
    1.5470   16.1080   20.8070 C   0  0  0  0  0  0  0  0  0  0  0  0
   -0.5880   15.2780   18.8860 C   0  0  0  0  0  0  0  0  0  0  0  0
    3.4520   20.0810   17.0750 C   0  0  1  0  0  0  0  0  0  0  0  0
    4.4000   20.7130   18.0910 C   0  0  0  0  0  0  0  0  0  0  0  0
    1.0270   18.5620   14.6770 C   0  0  0  0  0  0  0  0  0  0  0  0
    3.8850   20.7960   15.7960 C   0  0  0  0  0  0  0  0  0  0  0  0
    1.1860   18.8810   13.3330 C   0  0  0  0  0  0  0  0  0  0  0  0
    2.0590   18.1310   12.5410 C   0  0  0  0  0  0  0  0  0  0  0  0
    2.2070   18.4990   11.2270 O   0  0  0  0  0  0  0  0  0  0  0  0
    2.5620   16.7200   14.4070 C   0  0  0  0  0  0  0  0  0  0  0  0
    3.2100   15.6320   14.9150 O   0  0  0  0  0  0  0  0  0  0  0  0
    5.2950   21.1140   15.9470 O   0  0  0  0  0  0  0  0  0  0  0  0
    3.5140   18.6790   10.6060 C   0  0  0  0  0  0  0  0  0  0  0  0
    2.7490   17.0400   13.0670 C   0  0  0  0  0  0  0  0  0  0  0  0
    5.6390   21.0260   17.2800 C   0  0  0  0  0  0  0  0  0  0  0  0
    4.0080   17.4760    9.8290 C   0  0  0  0  0  0  0  0  0  0  0  0
    6.9070   21.1850   17.6990 C   0  0  0  0  0  0  0  0  0  0  0  0
    4.8920   16.7670   10.3590 O   0  5  0  0  0  0  0  0  0  0  0  0
    3.5380   17.2880    8.6870 O   0  0  0  0  0  0  0  0  0  0  0  0
    7.3400   21.0750   19.1430 C   0  0  0  0  0  0  0  0  0  0  0  0
    7.2370   22.3400   19.8060 O   0  0  0  0  0  0  0  0  0  0  0  0
    4.6460   18.3600   17.4540 H   0  0  0  0  0  0  0  0  0  0  0  0
    3.9450   18.3020   15.9460 H   0  0  0  0  0  0  0  0  0  0  0  0
    0.7860   16.6520   21.3480 H   0  0  0  0  0  0  0  0  0  0  0  0
    1.3430   15.0530   20.9120 H   0  0  0  0  0  0  0  0  0  0  0  0
    2.4910   16.2850   21.3040 H   0  0  0  0  0  0  0  0  0  0  0  0
   -1.0220   15.6140   19.8160 H   0  0  0  0  0  0  0  0  0  0  0  0
   -1.3740   15.3000   18.1430 H   0  0  0  0  0  0  0  0  0  0  0  0
   -0.2930   14.2450   19.0090 H   0  0  0  0  0  0  0  0  0  0  0  0
    2.4070   20.2750   17.3190 H   0  0  0  0  0  0  0  0  0  0  0  0
    3.9800   21.6350   18.4710 H   0  0  0  0  0  0  0  0  0  0  0  0
    4.5990   20.0790   18.9430 H   0  0  0  0  0  0  0  0  0  0  0  0
    0.3750   19.1400   15.2810 H   0  0  0  0  0  0  0  0  0  0  0  0
    3.7220   20.1820   14.9100 H   0  0  0  0  0  0  0  0  0  0  0  0
    3.3320   21.7310   15.7000 H   0  0  0  0  0  0  0  0  0  0  0  0
    0.6550   19.6950   12.9100 H   0  0  0  0  0  0  0  0  0  0  0  0
    2.8730   15.4150   15.8080 H   0  0  0  0  0  0  0  0  0  0  0  0
    3.4310   19.5200    9.9330 H   0  0  0  0  0  0  0  0  0  0  0  0
    4.2200   18.9500   11.3760 H   0  0  0  0  0  0  0  0  0  0  0  0
    3.3890   16.4560   12.4590 H   0  0  0  0  0  0  0  0  0  0  0  0
    7.6810   21.4070   17.0120 H   0  0  0  0  0  0  0  0  0  0  0  0
    6.7370   20.3570   19.6820 H   0  0  0  0  0  0  0  0  0  0  0  0
    8.3650   20.7340   19.2070 H   0  0  0  0  0  0  0  0  0  0  0  0
    7.8310   22.9800   19.3820 H   0  0  0  0  0  0  0  0  0  0  0  0
  1  2  2  0  0  0  0
  2  3  1  0  0  0  0
  2  4  1  0  0  0  0
  3  5  2  0  0  0  0
  3 10  1  0  0  0  0
  4  6  1  0  0  0  0
  4  9  1  0  0  0  0
  5  7  1  0  0  0  0
  5 11  1  0  0  0  0
  6  7  2  0  0  0  0
  6  8  1  0  0  0  0
  8 14  1  0  0  0  0
  8 19  2  0  0  0  0
  9 12  1  0  0  0  0
  9 31  1  0  0  0  0
  9 32  1  0  0  0  0
 10 33  1  0  0  0  0
 10 34  1  0  0  0  0
 10 35  1  0  0  0  0
 11 36  1  0  0  0  0
 11 37  1  0  0  0  0
 11 38  1  0  0  0  0
 12 13  1  0  0  0  0
 12 15  1  0  0  0  0
 12 39  1  0  0  0  0
 13 24  1  0  0  0  0
 13 40  1  0  0  0  0
 13 41  1  0  0  0  0
 14 16  2  0  0  0  0
 14 42  1  0  0  0  0
 15 21  1  0  0  0  0
 15 43  1  0  0  0  0
 15 44  1  0  0  0  0
 16 17  1  0  0  0  0
 16 45  1  0  0  0  0
 17 18  1  0  0  0  0
 17 23  2  0  0  0  0
 18 22  1  0  0  0  0
 19 20  1  0  0  0  0
 19 23  1  0  0  0  0
 20 46  1  0  0  0  0
 21 24  1  0  0  0  0
 22 25  1  0  0  0  0
 22 47  1  0  0  0  0
 22 48  1  0  0  0  0
 23 49  1  0  0  0  0
 24 26  2  0  0  0  0
 25 27  1  0  0  0  0
 25 28  2  0  0  0  0
 26 29  1  0  0  0  0
 26 50  1  0  0  0  0
 29 30  1  0  0  0  0
 29 51  1  0  0  0  0
 29 52  1  0  0  0  0
 30 53  1  0  0  0  0
M  CHG  1  27  -1
M  END
> <rseq>
1

> <mseq>
247

> <S>
-6.213185

> <rmsd_refine>
0.6781504

> <E_conf>
-111.9764

> <E_score1>
-13.24022

> <E_refine>
-35.31621

> <E_score2>
-6.213185

>  <$File>
outputs/pdb_4j58_cleaned.pdb_2024_06_17__22_47_40_V2_BS398_MIN1_/SDF/sdf_db.sdf

> <Rec_index>
1

>  <PLIF_raw>
[[27,27,27],[823,823,829],[54,54,54],[2,7,7],[6.5,5.331369982,1.511789548]]

> <FP:PLIF>
6 19 1 16

>  <PLIF_ligidx>
[27,27,[27,27],27]

$$$$
247
  MOE2022           3D

 56 58  0  0  1  0  0  0  0  0999 V2000
    7.4240   21.4460   18.4780 C   0  0  0  0  0  0  0  0  0  0  0  0
    6.9020   22.6900   18.1380 C   0  0  0  0  0  0  0  0  0  0  0  0
    6.5850   20.3410   18.5640 C   0  0  0  0  0  0  0  0  0  0  0  0
    5.5400   22.8300   17.8900 C   0  0  0  0  0  0  0  0  0  0  0  0
    5.2130   20.4670   18.3080 C   0  0  0  0  0  0  0  0  0  0  0  0
    4.6980   21.7270   17.9770 C   0  0  0  0  0  0  0  0  0  0  0  0
    4.3430   19.3000   18.4330 C   0  0  0  0  0  0  0  0  0  0  0  0
    3.4960   18.9090   17.3950 N   0  0  0  0  0  0  0  0  0  0  0  0
    3.9380   19.1970   16.0170 C   0  0  0  0  0  0  0  0  0  0  0  0
    4.3720   18.6330   19.4570 O   0  0  0  0  0  0  0  0  0  0  0  0
    2.6230   17.7000   17.5400 C   0  0  1  0  0  0  0  0  0  0  0  0
    1.8530   17.7180   18.7790 N   0  0  0  0  0  0  0  0  0  0  0  0
    1.6810   17.4560   16.3440 C   0  0  0  0  0  0  0  0  0  0  0  0
    2.3460   17.5720   15.0350 N   0  0  0  0  0  0  0  0  0  0  0  0
    1.3650   17.2920   13.9700 C   0  0  0  0  0  0  0  0  0  0  0  0
    1.9610   17.1800   12.5550 C   0  0  0  0  0  0  0  0  0  0  0  0
    2.9060   16.0100   12.3120 C   0  0  0  0  0  0  0  0  0  0  0  0
    1.7390   16.5880   19.5270 C   0  0  0  0  0  0  0  0  0  0  0  0
    3.6380   15.9460   11.1130 N   0  0  0  0  0  0  0  0  0  0  0  0
    3.5280   16.9280   10.1040 C   0  0  0  0  0  0  0  0  0  0  0  0
    2.8880   18.9320   14.9330 C   0  0  0  0  0  0  0  0  0  0  0  0
    1.8570   15.4640   19.0630 O   0  0  0  0  0  0  0  0  0  0  0  0
    1.5160   16.7920   20.8380 O   0  0  0  0  0  0  0  0  0  0  0  0
    4.3450   16.9370    9.0170 C   0  0  0  0  0  0  0  0  0  0  0  0
    5.4050   15.9900    8.8460 C   0  0  0  0  0  0  0  0  0  0  0  0
    1.7940   15.7440   21.7940 C   0  0  0  0  0  0  0  0  0  0  0  0
    4.4490   14.7370   10.8080 C   0  0  0  0  0  0  0  0  0  0  0  0
    3.0210   15.1060   13.1190 O   0  0  0  0  0  0  0  0  0  0  0  0
    6.0880   15.9740    7.8460 O   0  0  0  0  0  0  0  0  0  0  0  0
    5.6990   15.0220    9.9630 C   0  0  0  0  0  0  0  0  0  0  0  0
    8.4610   21.3400   18.6720 H   0  0  0  0  0  0  0  0  0  0  0  0
    7.5440   23.5300   18.0700 H   0  0  0  0  0  0  0  0  0  0  0  0
    6.9880   19.3970   18.8280 H   0  0  0  0  0  0  0  0  0  0  0  0
    5.1440   23.7800   17.6360 H   0  0  0  0  0  0  0  0  0  0  0  0
    3.6590   21.8410   17.7960 H   0  0  0  0  0  0  0  0  0  0  0  0
    4.2760   20.2170   15.9150 H   0  0  0  0  0  0  0  0  0  0  0  0
    4.7980   18.5780   15.8090 H   0  0  0  0  0  0  0  0  0  0  0  0
    3.2870   16.8470   17.5730 H   0  0  0  0  0  0  0  0  0  0  0  0
    1.7980   18.6250   19.2660 H   0  0  0  0  0  0  0  0  0  0  0  0
    1.2460   16.4690   16.4410 H   0  0  0  0  0  0  0  0  0  0  0  0
    0.8570   18.1560   16.3920 H   0  0  0  0  0  0  0  0  0  0  0  0
    0.8530   16.3650   14.1980 H   0  0  0  0  0  0  0  0  0  0  0  0
    0.6010   18.0590   13.9790 H   0  0  0  0  0  0  0  0  0  0  0  0
    1.1430   17.1000   11.8530 H   0  0  0  0  0  0  0  0  0  0  0  0
    2.4460   18.1100   12.3010 H   0  0  0  0  0  0  0  0  0  0  0  0
    2.7640   17.6470   10.2380 H   0  0  0  0  0  0  0  0  0  0  0  0
    2.0860   19.6550   15.0110 H   0  0  0  0  0  0  0  0  0  0  0  0
    3.3520   19.0810   13.9700 H   0  0  0  0  0  0  0  0  0  0  0  0
    4.2170   17.6650    8.2580 H   0  0  0  0  0  0  0  0  0  0  0  0
    1.3500   14.8050   21.4720 H   0  0  0  0  0  0  0  0  0  0  0  0
    2.8710   15.6060   21.8890 H   0  0  0  0  0  0  0  0  0  0  0  0
    1.3930   16.0080   22.7720 H   0  0  0  0  0  0  0  0  0  0  0  0
    4.7490   14.2110   11.7040 H   0  0  0  0  0  0  0  0  0  0  0  0
    3.8250   14.0340   10.2720 H   0  0  0  0  0  0  0  0  0  0  0  0
    6.1100   14.0990    9.5770 H   0  0  0  0  0  0  0  0  0  0  0  0
    6.4680   15.4430   10.5920 H   0  0  0  0  0  0  0  0  0  0  0  0
  1  2  2  0  0  0  0
  1  3  1  0  0  0  0
  1 31  1  0  0  0  0
  2  4  1  0  0  0  0
  2 32  1  0  0  0  0
  3  5  2  0  0  0  0
  3 33  1  0  0  0  0
  4  6  2  0  0  0  0
  4 34  1  0  0  0  0
  5  6  1  0  0  0  0
  5  7  1  0  0  0  0
  6 35  1  0  0  0  0
  7  8  1  0  0  0  0
  7 10  2  0  0  0  0
  8  9  1  0  0  0  0
  8 11  1  0  0  0  0
  9 21  1  0  0  0  0
  9 36  1  0  0  0  0
  9 37  1  0  0  0  0
 11 12  1  0  0  0  0
 11 13  1  0  0  0  0
 11 38  1  0  0  0  0
 12 18  1  0  0  0  0
 12 39  1  0  0  0  0
 13 14  1  0  0  0  0
 13 40  1  0  0  0  0
 13 41  1  0  0  0  0
 14 15  1  0  0  0  0
 14 21  1  0  0  0  0
 15 16  1  0  0  0  0
 15 42  1  0  0  0  0
 15 43  1  0  0  0  0
 16 17  1  0  0  0  0
 16 44  1  0  0  0  0
 16 45  1  0  0  0  0
 17 19  1  0  0  0  0
 17 28  2  0  0  0  0
 18 22  2  0  0  0  0
 18 23  1  0  0  0  0
 19 20  1  0  0  0  0
 19 27  1  0  0  0  0
 20 24  2  0  0  0  0
 20 46  1  0  0  0  0
 21 47  1  0  0  0  0
 21 48  1  0  0  0  0
 23 26  1  0  0  0  0
 24 25  1  0  0  0  0
 24 49  1  0  0  0  0
 25 29  2  0  0  0  0
 25 30  1  0  0  0  0
 26 50  1  0  0  0  0
 26 51  1  0  0  0  0
 26 52  1  0  0  0  0
 27 30  1  0  0  0  0
 27 53  1  0  0  0  0
 27 54  1  0  0  0  0
 30 55  1  0  0  0  0
 30 56  1  0  0  0  0
M  END
> <rseq>
1

> <mseq>
248

> <S>
-6.827375

> <rmsd_refine>
0.6719435

> <E_conf>
-71.65463

> <E_score1>
-10.51556

> <E_refine>
-33.63134

> <E_score2>
-6.827375

>  <$File>
outputs/pdb_4j58_cleaned.pdb_2024_06_17__22_47_40_V2_BS398_MIN1_/SDF/sdf_db.sdf

> <Rec_index>
1

>  <PLIF_raw>
[12,1504,101,3,1.3]

> <FP:PLIF>
8

>  <PLIF_ligidx>
12

$$$$
248
  MOE2022           3D

 57 59  0  0  1  0  0  0  0  0999 V2000
    6.1610   14.2360   10.0490 C   0  0  0  0  0  0  0  0  0  0  0  0
    5.9080   15.5670    9.7350 C   0  0  0  0  0  0  0  0  0  0  0  0
    4.6670   16.1260   10.0170 C   0  0  0  0  0  0  0  0  0  0  0  0
    3.6630   15.3560   10.6180 C   0  0  0  0  0  0  0  0  0  0  0  0
    3.9200   14.0080   10.9020 C   0  0  0  0  0  0  0  0  0  0  0  0
    5.1660   13.4560   10.6270 C   0  0  0  0  0  0  0  0  0  0  0  0
    2.3690   15.9580   10.9290 C   0  0  0  0  0  0  0  0  0  0  0  0
    1.9170   16.0070   12.2430 N   0  0  0  0  0  0  0  0  0  0  0  0
    1.6690   16.4490   10.0460 O   0  0  0  0  0  0  0  0  0  0  0  0
    2.8260   15.7840   13.3850 C   0  0  0  0  0  0  0  0  0  0  0  0
    0.6640   16.7200   12.5820 C   0  0  0  0  0  0  0  0  0  0  0  0
    2.0990   15.3430   14.6660 C   0  0  0  0  0  0  0  0  0  0  0  0
    0.0140   16.2360   13.8930 C   0  0  0  0  0  0  0  0  0  0  0  0
    0.9650   16.2090   15.0220 N   0  0  0  0  0  0  0  0  0  0  0  0
    1.1800   17.4280   15.7280 C   0  0  0  0  0  0  0  0  0  0  0  0
    2.4730   17.9080   15.9950 C   0  0  0  0  0  0  0  0  0  0  0  0
    0.0720   18.1620   16.1740 C   0  0  0  0  0  0  0  0  0  0  0  0
    2.6500   19.1220   16.6510 C   0  0  0  0  0  0  0  0  0  0  0  0
    4.0480   19.6540   16.8830 C   0  0  0  0  0  0  0  0  0  0  0  0
    4.5580   19.5150   18.2560 N   0  0  0  0  0  0  0  0  0  0  0  0
    0.2570   19.3660   16.8420 C   0  0  0  0  0  0  0  0  0  0  0  0
    1.5410   19.8490   17.0780 C   0  0  0  0  0  0  0  0  0  0  0  0
    3.9840   18.4850   19.0190 O   0  0  0  0  0  0  0  0  0  0  0  0
    5.6160   20.2260   18.7810 C   0  0  0  0  0  0  0  0  0  0  0  0
    5.9500   20.0340   19.9460 O   0  0  0  0  0  0  0  0  0  0  0  0
    6.3490   21.2330   17.8910 C   0  0  1  0  0  0  0  0  0  0  0  0
    7.4410   22.0560   18.6130 C   0  0  2  0  0  0  0  0  0  0  0  0
    6.9110   20.5840   16.7160 O   0  0  0  0  0  0  0  0  0  0  0  0
    7.7250   23.2170   17.8610 O   0  0  0  0  0  0  0  0  0  0  0  0
    8.7510   21.2880   18.8210 C   0  0  0  0  0  0  0  0  0  0  0  0
    7.1100   13.8130    9.8470 H   0  0  0  0  0  0  0  0  0  0  0  0
    6.6590   16.1550    9.2780 H   0  0  0  0  0  0  0  0  0  0  0  0
    4.4800   17.1410    9.7770 H   0  0  0  0  0  0  0  0  0  0  0  0
    3.1640   13.4070   11.3380 H   0  0  0  0  0  0  0  0  0  0  0  0
    5.3580   12.4390   10.8580 H   0  0  0  0  0  0  0  0  0  0  0  0
    3.5710   15.0370   13.1660 H   0  0  0  0  0  0  0  0  0  0  0  0
    3.3730   16.6970   13.5730 H   0  0  0  0  0  0  0  0  0  0  0  0
    0.8730   17.7780   12.6640 H   0  0  0  0  0  0  0  0  0  0  0  0
   -0.0600   16.6230   11.7850 H   0  0  0  0  0  0  0  0  0  0  0  0
    1.7290   14.3390   14.5130 H   0  0  0  0  0  0  0  0  0  0  0  0
    2.7960   15.2660   15.4880 H   0  0  0  0  0  0  0  0  0  0  0  0
   -0.8520   16.8430   14.1100 H   0  0  0  0  0  0  0  0  0  0  0  0
   -0.3740   15.2380   13.7400 H   0  0  0  0  0  0  0  0  0  0  0  0
    3.3260   17.3630   15.6910 H   0  0  0  0  0  0  0  0  0  0  0  0
   -0.9100   17.8010   16.0150 H   0  0  0  0  0  0  0  0  0  0  0  0
    4.7340   19.1590   16.2090 H   0  0  0  0  0  0  0  0  0  0  0  0
    4.0710   20.6930   16.5850 H   0  0  0  0  0  0  0  0  0  0  0  0
   -0.5830   19.9190   17.1740 H   0  0  0  0  0  0  0  0  0  0  0  0
    1.6710   20.7710   17.5850 H   0  0  0  0  0  0  0  0  0  0  0  0
    3.0640   18.3810   18.7010 H   0  0  0  0  0  0  0  0  0  0  0  0
    5.6100   21.9260   17.5140 H   0  0  0  0  0  0  0  0  0  0  0  0
    7.0490   22.3670   19.5820 H   0  0  0  0  0  0  0  0  0  0  0  0
    7.6530   20.0140   16.9810 H   0  0  0  0  0  0  0  0  0  0  0  0
    8.4220   23.7060   18.3050 H   0  0  0  0  0  0  0  0  0  0  0  0
    9.2290   21.1000   17.8620 H   0  0  0  0  0  0  0  0  0  0  0  0
    9.4310   21.8730   19.4370 H   0  0  0  0  0  0  0  0  0  0  0  0
    8.5550   20.3360   19.3140 H   0  0  0  0  0  0  0  0  0  0  0  0
  1  2  2  0  0  0  0
  1  6  1  0  0  0  0
  1 31  1  0  0  0  0
  2  3  1  0  0  0  0
  2 32  1  0  0  0  0
  3  4  2  0  0  0  0
  3 33  1  0  0  0  0
  4  5  1  0  0  0  0
  4  7  1  0  0  0  0
  5  6  2  0  0  0  0
  5 34  1  0  0  0  0
  6 35  1  0  0  0  0
  7  8  1  0  0  0  0
  7  9  2  0  0  0  0
  8 10  1  0  0  0  0
  8 11  1  0  0  0  0
 10 12  1  0  0  0  0
 10 36  1  0  0  0  0
 10 37  1  0  0  0  0
 11 13  1  0  0  0  0
 11 38  1  0  0  0  0
 11 39  1  0  0  0  0
 12 14  1  0  0  0  0
 12 40  1  0  0  0  0
 12 41  1  0  0  0  0
 13 14  1  0  0  0  0
 13 42  1  0  0  0  0
 13 43  1  0  0  0  0
 14 15  1  0  0  0  0
 15 16  1  0  0  0  0
 15 17  2  0  0  0  0
 16 18  2  0  0  0  0
 16 44  1  0  0  0  0
 17 21  1  0  0  0  0
 17 45  1  0  0  0  0
 18 19  1  0  0  0  0
 18 22  1  0  0  0  0
 19 20  1  0  0  0  0
 19 46  1  0  0  0  0
 19 47  1  0  0  0  0
 20 23  1  0  0  0  0
 20 24  1  0  0  0  0
 21 22  2  0  0  0  0
 21 48  1  0  0  0  0
 22 49  1  0  0  0  0
 23 50  1  0  0  0  0
 24 25  2  0  0  0  0
 24 26  1  0  0  0  0
 26 27  1  0  0  0  0
 26 28  1  0  0  0  0
 26 51  1  0  0  0  0
 27 29  1  0  0  0  0
 27 30  1  0  0  0  0
 27 52  1  0  0  0  0
 28 53  1  0  0  0  0
 29 54  1  0  0  0  0
 30 55  1  0  0  0  0
 30 56  1  0  0  0  0
 30 57  1  0  0  0  0
M  END
> <rseq>
1

> <mseq>
249

> <S>
-6.645324

> <rmsd_refine>
1.554638

> <E_conf>
115.9788

> <E_score1>
-9.323252

> <E_refine>
-34.51653

> <E_score2>
-6.645324

>  <$File>
outputs/pdb_4j58_cleaned.pdb_2024_06_17__22_47_40_V2_BS398_MIN1_/SDF/sdf_db.sdf

> <Rec_index>
1

>  <PLIF_raw>
[28,924,60,1,0.6]

> <FP:PLIF>
37

>  <PLIF_ligidx>
28

$$$$
249
  MOE2022           3D

 55 57  0  0  0  0  0  0  0  0999 V2000
    6.2090   14.1720   10.0740 C   0  0  0  0  0  0  0  0  0  0  0  0
    5.9580   15.5090    9.7800 C   0  0  0  0  0  0  0  0  0  0  0  0
    4.6990   16.0490   10.0130 C   0  0  0  0  0  0  0  0  0  0  0  0
    3.6760   15.2560   10.5440 C   0  0  0  0  0  0  0  0  0  0  0  0
    3.9310   13.9040   10.8100 C   0  0  0  0  0  0  0  0  0  0  0  0
    5.1930   13.3690   10.5830 C   0  0  0  0  0  0  0  0  0  0  0  0
    2.3650   15.8430   10.8110 C   0  0  0  0  0  0  0  0  0  0  0  0
    1.8770   15.8970   12.1110 N   0  0  0  0  0  0  0  0  0  0  0  0
    1.6860   16.3180    9.9040 O   0  0  0  0  0  0  0  0  0  0  0  0
    2.7500   15.6560   13.2780 C   0  0  0  0  0  0  0  0  0  0  0  0
    0.6300   16.6380   12.4130 C   0  0  0  0  0  0  0  0  0  0  0  0
    1.9760   15.2330   14.5380 C   0  0  0  0  0  0  0  0  0  0  0  0
   -0.0630   16.1790   13.7110 C   0  0  0  0  0  0  0  0  0  0  0  0
    0.8600   16.1340   14.8630 N   0  0  0  0  0  0  0  0  0  0  0  0
    1.0950   17.3480   15.5730 C   0  0  0  0  0  0  0  0  0  0  0  0
    2.3950   17.7650   15.9050 C   0  0  0  0  0  0  0  0  0  0  0  0
    0.0040   18.1360   15.9660 C   0  0  0  0  0  0  0  0  0  0  0  0
    2.5980   18.9630   16.5820 C   0  0  0  0  0  0  0  0  0  0  0  0
    4.0060   19.4070   16.9180 C   0  0  0  0  0  0  0  0  0  0  0  0
    4.2910   19.4130   18.3580 N   0  0  0  0  0  0  0  0  0  0  0  0
    0.2140   19.3260   16.6500 C   0  0  0  0  0  0  0  0  0  0  0  0
    1.5060   19.7440   16.9550 C   0  0  0  0  0  0  0  0  0  0  0  0
    3.8560   18.2610   19.0340 O   0  0  0  0  0  0  0  0  0  0  0  0
    4.9730   20.3760   19.0670 C   0  0  0  0  0  0  0  0  0  0  0  0
    5.2970   20.1560   20.2260 O   0  0  0  0  0  0  0  0  0  0  0  0
    5.3770   21.6790   18.4140 C   0  0  0  0  0  0  0  0  0  0  0  0
    6.7800   21.5900   17.8850 C   0  0  0  0  0  0  0  0  0  0  0  0
    7.7440   21.8190   18.7920 O   0  0  0  0  0  0  0  0  0  0  0  0
    7.0530   21.2130   16.7430 O   0  0  0  0  0  0  0  0  0  0  0  0
    9.1330   21.6180   18.4890 C   0  0  0  0  0  0  0  0  0  0  0  0
    7.1710   13.7630    9.9110 H   0  0  0  0  0  0  0  0  0  0  0  0
    6.7250   16.1150    9.3770 H   0  0  0  0  0  0  0  0  0  0  0  0
    4.5140   17.0680    9.7880 H   0  0  0  0  0  0  0  0  0  0  0  0
    3.1600   13.2870   11.1950 H   0  0  0  0  0  0  0  0  0  0  0  0
    5.3840   12.3500   10.8010 H   0  0  0  0  0  0  0  0  0  0  0  0
    3.4870   14.8950   13.0800 H   0  0  0  0  0  0  0  0  0  0  0  0
    3.3090   16.5570   13.4830 H   0  0  0  0  0  0  0  0  0  0  0  0
    0.8580   17.6920   12.4920 H   0  0  0  0  0  0  0  0  0  0  0  0
   -0.0760   16.5490   11.5990 H   0  0  0  0  0  0  0  0  0  0  0  0
    1.5820   14.2380   14.3770 H   0  0  0  0  0  0  0  0  0  0  0  0
    2.6500   15.1370   15.3760 H   0  0  0  0  0  0  0  0  0  0  0  0
   -0.9200   16.8070   13.9030 H   0  0  0  0  0  0  0  0  0  0  0  0
   -0.4720   15.1900   13.5540 H   0  0  0  0  0  0  0  0  0  0  0  0
    3.2350   17.1810   15.6400 H   0  0  0  0  0  0  0  0  0  0  0  0
   -0.9860   17.8240   15.7580 H   0  0  0  0  0  0  0  0  0  0  0  0
    4.7180   18.7540   16.4330 H   0  0  0  0  0  0  0  0  0  0  0  0
    4.1800   20.3690   16.4640 H   0  0  0  0  0  0  0  0  0  0  0  0
   -0.6130   19.9190   16.9450 H   0  0  0  0  0  0  0  0  0  0  0  0
    1.6540   20.6540   17.4780 H   0  0  0  0  0  0  0  0  0  0  0  0
    3.0060   17.9990   18.6240 H   0  0  0  0  0  0  0  0  0  0  0  0
    4.6950   21.9760   17.6320 H   0  0  0  0  0  0  0  0  0  0  0  0
    5.3330   22.4630   19.1570 H   0  0  0  0  0  0  0  0  0  0  0  0
    9.7520   21.9280   19.3280 H   0  0  0  0  0  0  0  0  0  0  0  0
    9.3220   20.5620   18.3010 H   0  0  0  0  0  0  0  0  0  0  0  0
    9.4150   22.2010   17.6120 H   0  0  0  0  0  0  0  0  0  0  0  0
  1  2  1  0  0  0  0
  1  6  2  0  0  0  0
  1 31  1  0  0  0  0
  2  3  2  0  0  0  0
  2 32  1  0  0  0  0
  3  4  1  0  0  0  0
  3 33  1  0  0  0  0
  4  5  2  0  0  0  0
  4  7  1  0  0  0  0
  5  6  1  0  0  0  0
  5 34  1  0  0  0  0
  6 35  1  0  0  0  0
  7  8  1  0  0  0  0
  7  9  2  0  0  0  0
  8 10  1  0  0  0  0
  8 11  1  0  0  0  0
 10 12  1  0  0  0  0
 10 36  1  0  0  0  0
 10 37  1  0  0  0  0
 11 13  1  0  0  0  0
 11 38  1  0  0  0  0
 11 39  1  0  0  0  0
 12 14  1  0  0  0  0
 12 40  1  0  0  0  0
 12 41  1  0  0  0  0
 13 14  1  0  0  0  0
 13 42  1  0  0  0  0
 13 43  1  0  0  0  0
 14 15  1  0  0  0  0
 15 16  2  0  0  0  0
 15 17  1  0  0  0  0
 16 18  1  0  0  0  0
 16 44  1  0  0  0  0
 17 21  2  0  0  0  0
 17 45  1  0  0  0  0
 18 19  1  0  0  0  0
 18 22  2  0  0  0  0
 19 20  1  0  0  0  0
 19 46  1  0  0  0  0
 19 47  1  0  0  0  0
 20 23  1  0  0  0  0
 20 24  1  0  0  0  0
 21 22  1  0  0  0  0
 21 48  1  0  0  0  0
 22 49  1  0  0  0  0
 23 50  1  0  0  0  0
 24 25  2  0  0  0  0
 24 26  1  0  0  0  0
 26 27  1  0  0  0  0
 26 51  1  0  0  0  0
 26 52  1  0  0  0  0
 27 28  1  0  0  0  0
 27 29  2  0  0  0  0
 28 30  1  0  0  0  0
 30 53  1  0  0  0  0
 30 54  1  0  0  0  0
 30 55  1  0  0  0  0
M  END
> <rseq>
1

> <mseq>
250

> <S>
-6.445448

> <rmsd_refine>
1.394056

> <E_conf>
25.54667

> <E_score1>
-9.410623

> <E_refine>
-34.52683

> <E_score2>
-6.445448

>  <$File>
outputs/pdb_4j58_cleaned.pdb_2024_06_17__22_47_40_V2_BS398_MIN1_/SDF/sdf_db.sdf

> <Rec_index>
1

>  <PLIF_raw>
[[30,25,30,30,30,30,30,30],[924,1499,1651,1655,1659,1657,1653,1650],[60,101,112,112,112,112,112,112],[1,4,10,10,10,10,10,10],[0.5,2.4,0.7,0.7,0.7,0.7,0.7,0.7]]

> <FP:PLIF>
37 11 12 15

>  <PLIF_ligidx>
[30,25,25,[30,30,30,30,30,30]]

$$$$
250
  MOE2022           3D

 51 53  0  0  1  0  0  0  0  0999 V2000
    8.4230   20.7380   18.6020 C   0  0  0  0  0  0  0  0  0  0  0  0
    8.4540   21.9760   17.9680 C   0  0  0  0  0  0  0  0  0  0  0  0
    7.2100   20.0910   18.8080 C   0  0  0  0  0  0  0  0  0  0  0  0
    6.0190   20.6750   18.3790 C   0  0  0  0  0  0  0  0  0  0  0  0
    6.0560   21.9160   17.7430 C   0  0  0  0  0  0  0  0  0  0  0  0
    7.2700   22.5660   17.5400 C   0  0  0  0  0  0  0  0  0  0  0  0
    4.6950   19.9620   18.5890 C   0  0  0  0  0  0  0  0  0  0  0  0
    4.2120   19.1410   17.3930 C   0  0  0  0  0  0  0  0  0  0  0  0
    3.1280   18.2200   17.4660 N   0  0  0  0  0  0  0  0  0  0  0  0
    2.6850   17.6520   18.6870 C   0  0  0  0  0  0  0  0  0  0  0  0
    2.4390   17.8530   16.1950 C   0  0  2  0  0  0  0  0  0  0  0  0
    4.7070   19.3530   16.3030 O   0  0  0  0  0  0  0  0  0  0  0  0
    1.1090   18.6350   16.1060 C   0  0  1  0  0  0  0  0  0  0  0  0
    1.2840   17.2940   18.9760 C   0  0  0  0  0  0  0  0  0  0  0  0
    2.3710   16.3180   15.9700 C   0  0  0  0  0  0  0  0  0  0  0  0
    0.9780   16.7680   20.0350 O   0  0  0  0  0  0  0  0  0  0  0  0
    3.5390   17.4230   19.5330 O   0  0  0  0  0  0  0  0  0  0  0  0
    0.7440   18.8810   14.7640 O   0  0  0  0  0  0  0  0  0  0  0  0
   -0.0500   17.9430   16.8090 C   0  0  0  0  0  0  0  0  0  0  0  0
    1.9280   15.8450   14.5730 C   0  0  0  0  0  0  0  0  0  0  0  0
    3.0370   15.5830   13.6760 O   0  0  0  0  0  0  0  0  0  0  0  0
    3.2950   16.2690   12.4990 C   0  0  0  0  0  0  0  0  0  0  0  0
    0.2290   17.5130   18.1550 O   0  0  0  0  0  0  0  0  0  0  0  0
    3.8120   15.5630   11.4040 C   0  0  0  0  0  0  0  0  0  0  0  0
    3.0900   17.6440   12.4030 C   0  0  0  0  0  0  0  0  0  0  0  0
    3.4170   18.2900   11.2110 C   0  0  0  0  0  0  0  0  0  0  0  0
    4.0210   14.2110   11.4850 O   0  0  0  0  0  0  0  0  0  0  0  0
    3.2330   19.6400   11.1160 O   0  0  0  0  0  0  0  0  0  0  0  0
    3.9330   17.5930   10.1180 C   0  0  0  0  0  0  0  0  0  0  0  0
    4.1300   16.2180   10.2170 C   0  0  0  0  0  0  0  0  0  0  0  0
    9.3260   20.2880   18.9240 H   0  0  0  0  0  0  0  0  0  0  0  0
    9.3790   22.4670   17.8110 H   0  0  0  0  0  0  0  0  0  0  0  0
    7.1960   19.1490   19.2920 H   0  0  0  0  0  0  0  0  0  0  0  0
    5.1580   22.3690   17.4080 H   0  0  0  0  0  0  0  0  0  0  0  0
    7.2930   23.5090   17.0570 H   0  0  0  0  0  0  0  0  0  0  0  0
    4.7760   19.3870   19.4960 H   0  0  0  0  0  0  0  0  0  0  0  0
    3.9410   20.7030   18.8040 H   0  0  0  0  0  0  0  0  0  0  0  0
    3.0240   18.2090   15.3620 H   0  0  0  0  0  0  0  0  0  0  0  0
    1.2660   19.6060   16.5800 H   0  0  0  0  0  0  0  0  0  0  0  0
    3.3550   15.8920   16.1710 H   0  0  0  0  0  0  0  0  0  0  0  0
    1.6850   15.8850   16.6920 H   0  0  0  0  0  0  0  0  0  0  0  0
    0.0370   19.5310   14.7450 H   0  0  0  0  0  0  0  0  0  0  0  0
   -0.8990   18.6260   16.8410 H   0  0  0  0  0  0  0  0  0  0  0  0
   -0.3480   17.0680   16.2300 H   0  0  0  0  0  0  0  0  0  0  0  0
    1.3980   14.9000   14.6960 H   0  0  0  0  0  0  0  0  0  0  0  0
    1.2330   16.5470   14.1160 H   0  0  0  0  0  0  0  0  0  0  0  0
    2.7090   18.2000   13.2160 H   0  0  0  0  0  0  0  0  0  0  0  0
    3.7880   13.8760   12.3750 H   0  0  0  0  0  0  0  0  0  0  0  0
    3.4340   19.9520   10.2130 H   0  0  0  0  0  0  0  0  0  0  0  0
    4.1740   18.1030    9.2210 H   0  0  0  0  0  0  0  0  0  0  0  0
    4.5200   15.6740    9.3950 H   0  0  0  0  0  0  0  0  0  0  0  0
  1  2  2  0  0  0  0
  1  3  1  0  0  0  0
  1 31  1  0  0  0  0
  2  6  1  0  0  0  0
  2 32  1  0  0  0  0
  3  4  2  0  0  0  0
  3 33  1  0  0  0  0
  4  5  1  0  0  0  0
  4  7  1  0  0  0  0
  5  6  2  0  0  0  0
  5 34  1  0  0  0  0
  6 35  1  0  0  0  0
  7  8  1  0  0  0  0
  7 36  1  0  0  0  0
  7 37  1  0  0  0  0
  8  9  1  0  0  0  0
  8 12  2  0  0  0  0
  9 10  1  0  0  0  0
  9 11  1  0  0  0  0
 10 14  1  0  0  0  0
 10 17  2  0  0  0  0
 11 13  1  0  0  0  0
 11 15  1  0  0  0  0
 11 38  1  0  0  0  0
 13 18  1  0  0  0  0
 13 19  1  0  0  0  0
 13 39  1  0  0  0  0
 14 16  2  0  0  0  0
 14 23  1  0  0  0  0
 15 20  1  0  0  0  0
 15 40  1  0  0  0  0
 15 41  1  0  0  0  0
 18 42  1  0  0  0  0
 19 23  1  0  0  0  0
 19 43  1  0  0  0  0
 19 44  1  0  0  0  0
 20 21  1  0  0  0  0
 20 45  1  0  0  0  0
 20 46  1  0  0  0  0
 21 22  1  0  0  0  0
 22 24  2  0  0  0  0
 22 25  1  0  0  0  0
 24 27  1  0  0  0  0
 24 30  1  0  0  0  0
 25 26  2  0  0  0  0
 25 47  1  0  0  0  0
 26 28  1  0  0  0  0
 26 29  1  0  0  0  0
 27 48  1  0  0  0  0
 28 49  1  0  0  0  0
 29 30  2  0  0  0  0
 29 50  1  0  0  0  0
 30 51  1  0  0  0  0
M  END
> <rseq>
1

> <mseq>
251

> <S>
-6.468205

> <rmsd_refine>
0.9041119

> <E_conf>
44.89693

> <E_score1>
-9.294653

> <E_refine>
-35.44342

> <E_score2>
-6.468205

>  <$File>
outputs/pdb_4j58_cleaned.pdb_2024_06_17__22_47_40_V2_BS398_MIN1_/SDF/sdf_db.sdf

> <Rec_index>
1

>  <PLIF_raw>
[27,1056,70,3,0.8]

> <FP:PLIF>
3

>  <PLIF_ligidx>
27

$$$$
251
  MOE2022           3D

 61 64  0  0  1  0  0  0  0  0999 V2000
    2.6630   16.3020   20.9480 C   0  0  0  0  0  0  0  0  0  0  0  0
    1.3760   15.9190   21.2930 C   0  0  0  0  0  0  0  0  0  0  0  0
    2.9050   16.9270   19.7320 C   0  0  0  0  0  0  0  0  0  0  0  0
    0.3290   16.1380   20.4060 C   0  0  0  0  0  0  0  0  0  0  0  0
    0.5760   16.7400   19.1750 C   0  0  0  0  0  0  0  0  0  0  0  0
    1.8650   17.1470   18.8290 C   0  0  0  0  0  0  0  0  0  0  0  0
    2.1070   17.7600   17.4560 C   0  0  1  0  0  0  0  0  0  0  0  0
    3.2650   18.6810   17.4810 N   0  0  0  0  0  0  0  0  0  0  0  0
    2.1350   16.5970   16.4230 C   0  0  0  0  0  0  0  0  0  0  0  0
    3.8610   19.3100   16.4530 C   0  0  0  0  0  0  0  0  0  0  0  0
    1.8520   16.8770   14.9870 N   0  0  0  0  0  0  0  0  0  0  0  0
    0.7400   17.6540   14.5920 C   0  0  0  0  0  0  0  0  0  0  0  0
   -0.0860   17.9970   15.4140 O   0  0  0  0  0  0  0  0  0  0  0  0
    2.6160   16.2140   14.0060 C   0  0  0  0  0  0  0  0  0  0  0  0
    3.6920   19.0180   15.2730 O   0  0  0  0  0  0  0  0  0  0  0  0
    3.4050   15.3460   14.3280 O   0  0  0  0  0  0  0  0  0  0  0  0
    2.4070   16.6230   12.5580 C   0  0  2  0  0  0  0  0  0  0  0  0
    0.5590   17.9900   13.1170 C   0  0  0  0  0  0  0  0  0  0  0  0
    1.0060   16.8830   12.2810 N   0  0  0  0  0  0  0  0  0  0  0  0
    0.9340   17.0820   10.8390 C   0  0  0  0  0  0  0  0  0  0  0  0
    4.7750   20.4990   16.7980 C   0  0  2  0  0  0  0  0  0  0  0  0
    2.8230   15.6610   11.4400 C   0  0  1  0  0  0  0  0  0  0  0  0
    1.9680   16.1090   10.2500 C   0  0  0  0  0  0  0  0  0  0  0  0
    5.9950   20.1430   17.6630 C   0  0  0  0  0  0  0  0  0  0  0  0
    4.0610   21.6380   17.5500 C   0  0  0  0  0  0  0  0  0  0  0  0
    6.3080   21.3970   18.4870 C   0  0  0  0  0  0  0  0  0  0  0  0
    4.8930   21.8940   18.8100 C   0  0  0  0  0  0  0  0  0  0  0  0
    4.2070   15.7300   11.1650 O   0  0  0  0  0  0  0  0  0  0  0  0
    7.1110   21.0500   19.7510 C   0  0  0  0  0  0  0  0  0  0  0  0
    7.1030   22.4340   17.6660 C   0  0  0  0  0  0  0  0  0  0  0  0
    3.4630   16.1180   21.6140 H   0  0  0  0  0  0  0  0  0  0  0  0
    1.2040   15.4670   22.2310 H   0  0  0  0  0  0  0  0  0  0  0  0
    3.8890   17.2270   19.5010 H   0  0  0  0  0  0  0  0  0  0  0  0
   -0.6570   15.8450   20.6610 H   0  0  0  0  0  0  0  0  0  0  0  0
   -0.2240   16.8860   18.4950 H   0  0  0  0  0  0  0  0  0  0  0  0
    1.2450   18.3800   17.2670 H   0  0  0  0  0  0  0  0  0  0  0  0
    3.4760   19.0470   18.3980 H   0  0  0  0  0  0  0  0  0  0  0  0
    3.0840   16.0940   16.5430 H   0  0  0  0  0  0  0  0  0  0  0  0
    1.4070   15.8630   16.7370 H   0  0  0  0  0  0  0  0  0  0  0  0
    2.9430   17.5530   12.4080 H   0  0  0  0  0  0  0  0  0  0  0  0
   -0.4790   18.2100   12.9070 H   0  0  0  0  0  0  0  0  0  0  0  0
    1.1240   18.8810   12.8740 H   0  0  0  0  0  0  0  0  0  0  0  0
   -0.0660   16.8920   10.4730 H   0  0  0  0  0  0  0  0  0  0  0  0
    1.1990   18.1020   10.5950 H   0  0  0  0  0  0  0  0  0  0  0  0
    5.1470   20.9160   15.8610 H   0  0  0  0  0  0  0  0  0  0  0  0
    2.5420   14.6460   11.7250 H   0  0  0  0  0  0  0  0  0  0  0  0
    1.4660   15.2440    9.8150 H   0  0  0  0  0  0  0  0  0  0  0  0
    2.5680   16.6140    9.4920 H   0  0  0  0  0  0  0  0  0  0  0  0
    5.7430   19.3230   18.3360 H   0  0  0  0  0  0  0  0  0  0  0  0
    6.8470   19.8640   17.0450 H   0  0  0  0  0  0  0  0  0  0  0  0
    4.0490   22.5330   16.9260 H   0  0  0  0  0  0  0  0  0  0  0  0
    3.0370   21.3750   17.8200 H   0  0  0  0  0  0  0  0  0  0  0  0
    4.8810   22.9480   19.0890 H   0  0  0  0  0  0  0  0  0  0  0  0
    4.4750   21.2930   19.6180 H   0  0  0  0  0  0  0  0  0  0  0  0
    4.6690   15.2430   11.8540 H   0  0  0  0  0  0  0  0  0  0  0  0
    6.5630   20.3360   20.3660 H   0  0  0  0  0  0  0  0  0  0  0  0
    8.0680   20.6080   19.4690 H   0  0  0  0  0  0  0  0  0  0  0  0
    7.2990   21.9520   20.3330 H   0  0  0  0  0  0  0  0  0  0  0  0
    7.2590   23.3360   18.2590 H   0  0  0  0  0  0  0  0  0  0  0  0
    8.0760   22.0240   17.3910 H   0  0  0  0  0  0  0  0  0  0  0  0
    6.5690   22.7060   16.7550 H   0  0  0  0  0  0  0  0  0  0  0  0
  1  2  2  0  0  0  0
  1  3  1  0  0  0  0
  1 31  1  0  0  0  0
  2  4  1  0  0  0  0
  2 32  1  0  0  0  0
  3  6  2  0  0  0  0
  3 33  1  0  0  0  0
  4  5  2  0  0  0  0
  4 34  1  0  0  0  0
  5  6  1  0  0  0  0
  5 35  1  0  0  0  0
  6  7  1  0  0  0  0
  7  8  1  0  0  0  0
  7  9  1  0  0  0  0
  7 36  1  0  0  0  0
  8 10  1  0  0  0  0
  8 37  1  0  0  0  0
  9 11  1  0  0  0  0
  9 38  1  0  0  0  0
  9 39  1  0  0  0  0
 10 15  2  0  0  0  0
 10 21  1  0  0  0  0
 11 12  1  0  0  0  0
 11 14  1  0  0  0  0
 12 13  2  0  0  0  0
 12 18  1  0  0  0  0
 14 16  2  0  0  0  0
 14 17  1  0  0  0  0
 17 19  1  0  0  0  0
 17 22  1  0  0  0  0
 17 40  1  0  0  0  0
 18 19  1  0  0  0  0
 18 41  1  0  0  0  0
 18 42  1  0  0  0  0
 19 20  1  0  0  0  0
 20 23  1  0  0  0  0
 20 43  1  0  0  0  0
 20 44  1  0  0  0  0
 21 24  1  0  0  0  0
 21 25  1  0  0  0  0
 21 45  1  0  0  0  0
 22 23  1  0  0  0  0
 22 28  1  0  0  0  0
 22 46  1  0  0  0  0
 23 47  1  0  0  0  0
 23 48  1  0  0  0  0
 24 26  1  0  0  0  0
 24 49  1  0  0  0  0
 24 50  1  0  0  0  0
 25 27  1  0  0  0  0
 25 51  1  0  0  0  0
 25 52  1  0  0  0  0
 26 27  1  0  0  0  0
 26 29  1  0  0  0  0
 26 30  1  0  0  0  0
 27 53  1  0  0  0  0
 27 54  1  0  0  0  0
 28 55  1  0  0  0  0
 29 56  1  0  0  0  0
 29 57  1  0  0  0  0
 29 58  1  0  0  0  0
 30 59  1  0  0  0  0
 30 60  1  0  0  0  0
 30 61  1  0  0  0  0
M  END
> <rseq>
1

> <mseq>
252

> <S>
-6.634385

> <rmsd_refine>
1.067218

> <E_conf>
62.78595

> <E_score1>
-9.040322

> <E_refine>
-33.16235

> <E_score2>
-6.634385

>  <$File>
outputs/pdb_4j58_cleaned.pdb_2024_06_17__22_47_40_V2_BS398_MIN1_/SDF/sdf_db.sdf

> <Rec_index>
1

>  <PLIF_raw>
[[],[],[],[],[]]

>  <PLIF_ligidx>
[]

$$$$
276
  MOE2022           3D

 47 51  0  0  0  0  0  0  0  0999 V2000
    7.1700   20.8390   18.9650 C   0  0  0  0  0  0  0  0  0  0  0  0
    6.2040   19.8660   18.7210 C   0  0  0  0  0  0  0  0  0  0  0  0
    5.0150   20.1750   18.0460 C   0  0  0  0  0  0  0  0  0  0  0  0
    4.0130   19.1340   17.7820 C   0  0  0  0  0  0  0  0  0  0  0  0
    3.4300   18.9750   16.5170 C   0  0  0  0  0  0  0  0  0  0  0  0
    3.5920   18.2930   18.8160 C   0  0  0  0  0  0  0  0  0  0  0  0
    2.5590   17.3620   18.6460 C   0  0  0  0  0  0  0  0  0  0  0  0
    2.4050   18.0540   16.3180 C   0  0  0  0  0  0  0  0  0  0  0  0
    2.0720   16.5680   19.7720 C   0  0  0  0  0  0  0  0  0  0  0  0
    1.9810   17.2520   17.3740 C   0  0  0  0  0  0  0  0  0  0  0  0
    1.7080   17.9560   14.9740 C   0  0  0  0  0  0  0  0  0  0  0  0
    0.8770   16.0230   19.8220 N   0  0  0  0  0  0  0  0  0  0  0  0
    2.7640   16.3420   20.8670 N   0  0  0  0  0  0  0  0  0  0  0  0
    1.9680   15.6290   21.6360 N   0  5  0  0  0  0  0  0  0  0  0  0
    2.3120   17.0160   14.0150 N   0  0  0  0  0  0  0  0  0  0  0  0
    4.8190   21.5170   17.6680 C   0  0  0  0  0  0  0  0  0  0  0  0
    3.0310   17.4780   12.9060 C   0  0  0  0  0  0  0  0  0  0  0  0
    0.8190   15.4390   20.9990 N   0  0  0  0  0  0  0  0  0  0  0  0
    3.4610   16.5100   11.9070 C   0  0  0  0  0  0  0  0  0  0  0  0
    3.6520   21.9110   17.0810 O   0  0  0  0  0  0  0  0  0  0  0  0
    3.2820   18.6860   12.8290 O   0  0  0  0  0  0  0  0  0  0  0  0
    4.1360   16.9180   10.7430 C   0  0  0  0  0  0  0  0  0  0  0  0
    6.9640   22.1510   18.5490 C   0  0  0  0  0  0  0  0  0  0  0  0
    5.7840   22.4940   17.9020 C   0  0  0  0  0  0  0  0  0  0  0  0
    4.6020   15.9680    9.8470 C   0  0  0  0  0  0  0  0  0  0  0  0
    3.2250   15.1370   12.1240 C   0  0  0  0  0  0  0  0  0  0  0  0
    5.3010   16.3590    8.7430 O   0  0  0  0  0  0  0  0  0  0  0  0
    4.3770   14.6050   10.0570 C   0  0  0  0  0  0  0  0  0  0  0  0
    2.5260   14.7340   13.3120 C   0  0  0  0  0  0  0  0  0  0  0  0
    2.0890   15.6490   14.2140 C   0  0  0  0  0  0  0  0  0  0  0  0
    3.6860   14.1970   11.1840 C   0  0  0  0  0  0  0  0  0  0  0  0
    8.0660   20.5800   19.4670 H   0  0  0  0  0  0  0  0  0  0  0  0
    6.3780   18.8800   19.0550 H   0  0  0  0  0  0  0  0  0  0  0  0
    3.7560   19.5780   15.7090 H   0  0  0  0  0  0  0  0  0  0  0  0
    4.0430   18.3900   19.7680 H   0  0  0  0  0  0  0  0  0  0  0  0
    1.1960   16.5560   17.2210 H   0  0  0  0  0  0  0  0  0  0  0  0
    0.6780   17.6710   15.1390 H   0  0  0  0  0  0  0  0  0  0  0  0
    1.6250   18.9470   14.5480 H   0  0  0  0  0  0  0  0  0  0  0  0
    3.0210   21.1640   17.0560 H   0  0  0  0  0  0  0  0  0  0  0  0
    4.3040   17.9480   10.5570 H   0  0  0  0  0  0  0  0  0  0  0  0
    7.7050   22.8860   18.7300 H   0  0  0  0  0  0  0  0  0  0  0  0
    5.6160   23.4940   17.5920 H   0  0  0  0  0  0  0  0  0  0  0  0
    5.4060   17.3310    8.7200 H   0  0  0  0  0  0  0  0  0  0  0  0
    4.7330   13.8940    9.3570 H   0  0  0  0  0  0  0  0  0  0  0  0
    2.3490   13.7020   13.4730 H   0  0  0  0  0  0  0  0  0  0  0  0
    1.5600   15.4010   15.0990 H   0  0  0  0  0  0  0  0  0  0  0  0
    3.5040   13.1650   11.3430 H   0  0  0  0  0  0  0  0  0  0  0  0
  1  2  1  0  0  0  0
  1 23  2  0  0  0  0
  1 32  1  0  0  0  0
  2  3  2  0  0  0  0
  2 33  1  0  0  0  0
  3  4  1  0  0  0  0
  3 16  1  0  0  0  0
  4  5  1  0  0  0  0
  4  6  2  0  0  0  0
  5  8  2  0  0  0  0
  5 34  1  0  0  0  0
  6  7  1  0  0  0  0
  6 35  1  0  0  0  0
  7  9  1  0  0  0  0
  7 10  2  0  0  0  0
  8 10  1  0  0  0  0
  8 11  1  0  0  0  0
  9 12  1  0  0  0  0
  9 13  2  0  0  0  0
 10 36  1  0  0  0  0
 11 15  1  0  0  0  0
 11 37  1  0  0  0  0
 11 38  1  0  0  0  0
 12 18  2  0  0  0  0
 13 14  1  0  0  0  0
 14 18  1  0  0  0  0
 15 17  1  0  0  0  0
 15 30  1  0  0  0  0
 16 20  1  0  0  0  0
 16 24  2  0  0  0  0
 17 19  1  0  0  0  0
 17 21  2  0  0  0  0
 19 22  2  0  0  0  0
 19 26  1  0  0  0  0
 20 39  1  0  0  0  0
 22 25  1  0  0  0  0
 22 40  1  0  0  0  0
 23 24  1  0  0  0  0
 23 41  1  0  0  0  0
 24 42  1  0  0  0  0
 25 27  1  0  0  0  0
 25 28  2  0  0  0  0
 26 29  1  0  0  0  0
 26 31  2  0  0  0  0
 27 43  1  0  0  0  0
 28 31  1  0  0  0  0
 28 44  1  0  0  0  0
 29 30  2  0  0  0  0
 29 45  1  0  0  0  0
 30 46  1  0  0  0  0
 31 47  1  0  0  0  0
M  CHG  1  14  -1
M  END
> <rseq>
1

> <mseq>
277

> <S>
-6.630645

> <rmsd_refine>
0.8607112

> <E_conf>
-60.57183

> <E_score1>
-11.87085

> <E_refine>
-38.88421

> <E_score2>
-6.630645

>  <$File>
outputs/pdb_4j58_cleaned.pdb_2024_06_17__22_47_40_V2_BS398_MIN1_/SDF/sdf_db.sdf

> <Rec_index>
1

>  <PLIF_raw>
[[18,18,14,14,18,18,4,6,7,10,8,5],[1206,1212,1206,1212,1206,1212,954,954,954,954,954,954],[81,81,81,81,81,81,62,62,62,62,62,62],[2,2,7,7,7,7,10,10,10,10,10,10],[3.9,0.8,1.812251047,1.394037242,3.203155101,3.863775092,0.8,0.8,0.8,0.8,0.8,0.8]]

> <FP:PLIF>
21 17 18 24 25

>  <PLIF_ligidx>
[[4,6,7,10,8,5],[18,18],18,[14,14,18,18],18]

$$$$
277
  MOE2022           3D

 65 67  0  0  1  0  0  0  0  0999 V2000
    8.2470   21.8240   16.1050 C   0  0  0  0  0  0  0  0  0  0  0  0
    7.9220   21.1730   17.2900 C   0  0  0  0  0  0  0  0  0  0  0  0
    7.2400   22.3110   15.2800 C   0  0  0  0  0  0  0  0  0  0  0  0
    5.9060   22.1590   15.6470 C   0  0  0  0  0  0  0  0  0  0  0  0
    6.5880   21.0190   17.6550 C   0  0  0  0  0  0  0  0  0  0  0  0
    5.5730   21.5170   16.8390 C   0  0  0  0  0  0  0  0  0  0  0  0
    4.1200   21.3630   17.2430 C   0  0  0  0  0  0  0  0  0  0  0  0
    3.5210   20.1000   16.7930 N   0  0  0  0  0  0  0  0  0  0  0  0
    3.5750   18.9940   17.5660 C   0  0  0  0  0  0  0  0  0  0  0  0
    2.9730   20.0710   15.4370 C   0  0  0  0  0  0  0  0  0  0  0  0
    2.8820   17.6830   17.1160 C   0  0  2  0  0  0  0  0  0  0  0  0
    4.1860   18.9800   18.6350 O   0  0  0  0  0  0  0  0  0  0  0  0
    2.4150   17.6300   15.6430 C   0  0  1  0  0  0  0  0  0  0  0  0
    1.7760   17.2960   18.0270 N   0  3  0  0  0  0  0  0  0  0  0  0
    3.1070   18.6940   14.7900 C   0  0  0  0  0  0  0  0  0  0  0  0
    2.6740   16.2370   15.0630 C   0  0  0  0  0  0  0  0  0  0  0  0
    1.8370   15.8020   14.1140 N   0  0  0  0  0  0  0  0  0  0  0  0
    3.6320   15.5820   15.4630 O   0  0  0  0  0  0  0  0  0  0  0  0
    2.3110   16.6460   19.2390 C   0  0  0  0  0  0  0  0  0  0  0  0
    1.1970   16.2920   20.2220 C   0  0  0  0  0  0  0  0  0  0  0  0
    1.7960   15.7310   21.5140 C   0  0  0  0  0  0  0  0  0  0  0  0
    1.9320   14.4990   13.4670 C   0  0  0  0  0  0  0  0  0  0  0  0
    1.8050   14.6150   11.9430 C   0  0  0  0  0  0  0  0  0  0  0  0
    3.0420   15.1740   11.2490 C   0  0  0  0  0  0  0  0  0  0  0  0
    3.1480   16.5040   10.8110 C   0  0  0  0  0  0  0  0  0  0  0  0
    2.0170   17.5070   11.0110 C   0  0  0  0  0  0  0  0  0  0  0  0
    4.1020   14.2890   11.0260 C   0  0  0  0  0  0  0  0  0  0  0  0
    4.3130   16.8910   10.1330 C   0  0  0  0  0  0  0  0  0  0  0  0
    4.4490   18.1660    9.6610 O   0  0  0  0  0  0  0  0  0  0  0  0
    5.3610   16.0020    9.9070 C   0  0  0  0  0  0  0  0  0  0  0  0
    5.2550   14.6990   10.3660 C   0  0  0  0  0  0  0  0  0  0  0  0
    9.2630   21.9510   15.8340 H   0  0  0  0  0  0  0  0  0  0  0  0
    8.6890   20.7980   17.9170 H   0  0  0  0  0  0  0  0  0  0  0  0
    7.4870   22.8050   14.3760 H   0  0  0  0  0  0  0  0  0  0  0  0
    5.1440   22.5400   15.0170 H   0  0  0  0  0  0  0  0  0  0  0  0
    6.3490   20.5250   18.5610 H   0  0  0  0  0  0  0  0  0  0  0  0
    4.0300   21.4590   18.3170 H   0  0  0  0  0  0  0  0  0  0  0  0
    3.5460   22.1940   16.8540 H   0  0  0  0  0  0  0  0  0  0  0  0
    1.9330   20.3700   15.4610 H   0  0  0  0  0  0  0  0  0  0  0  0
    3.4730   20.8010   14.8140 H   0  0  0  0  0  0  0  0  0  0  0  0
    3.6460   16.9160   17.2160 H   0  0  0  0  0  0  0  0  0  0  0  0
    1.3430   17.8350   15.6100 H   0  0  0  0  0  0  0  0  0  0  0  0
    1.2540   18.1210   18.2860 H   0  0  0  0  0  0  0  0  0  0  0  0
    1.1680   16.6410   17.5560 H   0  0  0  0  0  0  0  0  0  0  0  0
    2.6620   18.7180   13.7950 H   0  0  0  0  0  0  0  0  0  0  0  0
    4.1640   18.4480   14.6920 H   0  0  0  0  0  0  0  0  0  0  0  0
    1.0850   16.4030   13.8130 H   0  0  0  0  0  0  0  0  0  0  0  0
    2.8440   15.7380   18.9570 H   0  0  0  0  0  0  0  0  0  0  0  0
    3.0050   17.3230   19.7390 H   0  0  0  0  0  0  0  0  0  0  0  0
    0.6350   17.1940   20.4590 H   0  0  0  0  0  0  0  0  0  0  0  0
    0.5220   15.5590   19.7780 H   0  0  0  0  0  0  0  0  0  0  0  0
    2.0680   14.6860   21.3790 H   0  0  0  0  0  0  0  0  0  0  0  0
    2.6860   16.2930   21.7910 H   0  0  0  0  0  0  0  0  0  0  0  0
    1.0680   15.8160   22.3180 H   0  0  0  0  0  0  0  0  0  0  0  0
    2.8770   14.0130   13.7060 H   0  0  0  0  0  0  0  0  0  0  0  0
    1.1220   13.8750   13.8420 H   0  0  0  0  0  0  0  0  0  0  0  0
    1.6370   13.6100   11.5540 H   0  0  0  0  0  0  0  0  0  0  0  0
    0.9120   15.1860   11.6910 H   0  0  0  0  0  0  0  0  0  0  0  0
    1.5080   17.3620   11.9600 H   0  0  0  0  0  0  0  0  0  0  0  0
    2.3770   18.5350   11.0120 H   0  0  0  0  0  0  0  0  0  0  0  0
    1.2850   17.4060   10.2090 H   0  0  0  0  0  0  0  0  0  0  0  0
    4.0260   13.2850   11.3520 H   0  0  0  0  0  0  0  0  0  0  0  0
    5.3000   18.2700    9.1890 H   0  0  0  0  0  0  0  0  0  0  0  0
    6.2300   16.3110    9.3860 H   0  0  0  0  0  0  0  0  0  0  0  0
    6.0460   14.0120   10.2070 H   0  0  0  0  0  0  0  0  0  0  0  0
  1  2  1  0  0  0  0
  1  3  2  0  0  0  0
  1 32  1  0  0  0  0
  2  5  2  0  0  0  0
  2 33  1  0  0  0  0
  3  4  1  0  0  0  0
  3 34  1  0  0  0  0
  4  6  2  0  0  0  0
  4 35  1  0  0  0  0
  5  6  1  0  0  0  0
  5 36  1  0  0  0  0
  6  7  1  0  0  0  0
  7  8  1  0  0  0  0
  7 37  1  0  0  0  0
  7 38  1  0  0  0  0
  8  9  1  0  0  0  0
  8 10  1  0  0  0  0
  9 11  1  0  0  0  0
  9 12  2  0  0  0  0
 10 15  1  0  0  0  0
 10 39  1  0  0  0  0
 10 40  1  0  0  0  0
 11 13  1  0  0  0  0
 11 14  1  0  0  0  0
 11 41  1  0  0  0  0
 13 15  1  0  0  0  0
 13 16  1  0  0  0  0
 13 42  1  0  0  0  0
 14 19  1  0  0  0  0
 14 43  1  0  0  0  0
 14 44  1  0  0  0  0
 15 45  1  0  0  0  0
 15 46  1  0  0  0  0
 16 17  1  0  0  0  0
 16 18  2  0  0  0  0
 17 22  1  0  0  0  0
 17 47  1  0  0  0  0
 19 20  1  0  0  0  0
 19 48  1  0  0  0  0
 19 49  1  0  0  0  0
 20 21  1  0  0  0  0
 20 50  1  0  0  0  0
 20 51  1  0  0  0  0
 21 52  1  0  0  0  0
 21 53  1  0  0  0  0
 21 54  1  0  0  0  0
 22 23  1  0  0  0  0
 22 55  1  0  0  0  0
 22 56  1  0  0  0  0
 23 24  1  0  0  0  0
 23 57  1  0  0  0  0
 23 58  1  0  0  0  0
 24 25  2  0  0  0  0
 24 27  1  0  0  0  0
 25 26  1  0  0  0  0
 25 28  1  0  0  0  0
 26 59  1  0  0  0  0
 26 60  1  0  0  0  0
 26 61  1  0  0  0  0
 27 31  2  0  0  0  0
 27 62  1  0  0  0  0
 28 29  1  0  0  0  0
 28 30  2  0  0  0  0
 29 63  1  0  0  0  0
 30 31  1  0  0  0  0
 30 64  1  0  0  0  0
 31 65  1  0  0  0  0
M  CHG  1  14   1
M  END
> <rseq>
1

> <mseq>
278

> <S>
-7.016825

> <rmsd_refine>
1.305357

> <E_conf>
-46.10102

> <E_score1>
-11.06126

> <E_refine>
-37.16757

> <E_score2>
-7.016825

>  <$File>
outputs/pdb_4j58_cleaned.pdb_2024_06_17__22_47_40_V2_BS398_MIN1_/SDF/sdf_db.sdf

> <Rec_index>
1

>  <PLIF_raw>
[[19,29,18,1,3,4,6,5,2],[1617,2222,1067,826,826,826,826,826,826],[110,148,71,54,54,54,54,54,54],[1,3,4,10,10,10,10,10,10],[0.7,2.1,0.5,0.5,0.5,0.5,0.5,0.5,0.5]]

> <FP:PLIF>
2 34 26 39 40

>  <PLIF_ligidx>
[[1,3,4,6,5,2],18,19,29,29]

$$$$
278
  MOE2022           3D

 52 55  0  0  1  0  0  0  0  0999 V2000
    3.3850   17.3010   19.5610 O   0  0  0  0  0  0  0  0  0  0  0  0
    2.3900   17.5230   18.8760 C   0  0  0  0  0  0  0  0  0  0  0  0
    2.4300   18.5010   17.9130 N   0  0  0  0  0  0  0  0  0  0  0  0
    1.1390   16.7900   19.0370 C   0  0  0  0  0  0  0  0  0  0  0  0
    0.3930   16.4000   17.9160 C   0  0  0  0  0  0  0  0  0  0  0  0
   -0.8000   15.7020   18.0690 C   0  0  0  0  0  0  0  0  0  0  0  0
    0.6670   16.4580   20.3130 C   0  0  0  0  0  0  0  0  0  0  0  0
    3.6590   18.9980   17.2760 C   0  0  1  0  0  0  0  0  0  0  0  0
   -0.5380   15.7800   20.4620 C   0  0  0  0  0  0  0  0  0  0  0  0
   -1.2680   15.3950   19.3420 C   0  0  0  0  0  0  0  0  0  0  0  0
    3.4720   18.9740   15.7560 C   0  0  0  0  0  0  0  0  0  0  0  0
    3.3970   17.7480   15.0770 C   0  0  0  0  0  0  0  0  0  0  0  0
    3.5430   16.5650   15.7550 O   0  0  0  0  0  0  0  0  0  0  0  0
    3.1520   17.6800   13.7070 C   0  0  0  0  0  0  0  0  0  0  0  0
    2.9650   18.8660   13.0030 C   0  0  0  0  0  0  0  0  0  0  0  0
    4.1820   20.3080   17.8680 C   0  0  0  0  0  0  0  0  0  0  0  0
    2.6350   18.8540   11.6670 O   0  0  0  0  0  0  0  0  0  0  0  0
    3.3060   20.1480   15.0120 C   0  0  0  0  0  0  0  0  0  0  0  0
    3.0530   20.0980   13.6440 C   0  0  0  0  0  0  0  0  0  0  0  0
    3.5330   18.4110   10.6190 C   0  0  0  0  0  0  0  0  0  0  0  0
    5.3780   20.3330   18.2400 O   0  0  0  0  0  0  0  0  0  0  0  0
    3.4120   21.2930   17.9430 O   0  5  0  0  0  0  0  0  0  0  0  0
    3.6520   16.9070   10.4970 C   0  0  0  0  0  0  0  0  0  0  0  0
    4.8610   16.4040   10.2130 N   0  0  0  0  0  0  0  0  0  0  0  0
    4.9870   15.0860   10.0910 C   0  0  0  0  0  0  0  0  0  0  0  0
    6.2450   14.3440    9.7530 C   0  0  0  0  0  0  0  0  0  0  0  0
    3.9340   14.2160   10.2470 C   0  0  0  0  0  0  0  0  0  0  0  0
    2.5340   16.0800   10.6530 C   0  0  0  0  0  0  0  0  0  0  0  0
    4.3830   12.7970   10.0490 C   0  0  0  0  0  0  0  0  0  0  0  0
    2.6710   14.7030   10.5340 C   0  0  0  0  0  0  0  0  0  0  0  0
    5.9280   12.8560   10.0170 C   0  0  0  0  0  0  0  0  0  0  0  0
    1.5500   18.7660   17.4480 H   0  0  0  0  0  0  0  0  0  0  0  0
    0.7400   16.6280   16.9410 H   0  0  0  0  0  0  0  0  0  0  0  0
   -1.3540   15.4070   17.2150 H   0  0  0  0  0  0  0  0  0  0  0  0
    1.2240   16.7370   21.1690 H   0  0  0  0  0  0  0  0  0  0  0  0
    4.4370   18.2830   17.4730 H   0  0  0  0  0  0  0  0  0  0  0  0
   -0.9090   15.5640   21.4280 H   0  0  0  0  0  0  0  0  0  0  0  0
   -2.1820   14.8710   19.4580 H   0  0  0  0  0  0  0  0  0  0  0  0
    3.3950   15.8060   15.1580 H   0  0  0  0  0  0  0  0  0  0  0  0
    3.0880   16.7420   13.2210 H   0  0  0  0  0  0  0  0  0  0  0  0
    3.3540   21.0960   15.4820 H   0  0  0  0  0  0  0  0  0  0  0  0
    2.9130   20.9940   13.0960 H   0  0  0  0  0  0  0  0  0  0  0  0
    3.1680   18.8110    9.6830 H   0  0  0  0  0  0  0  0  0  0  0  0
    4.5010   18.8640   10.7740 H   0  0  0  0  0  0  0  0  0  0  0  0
    6.4580   14.4960    8.6960 H   0  0  0  0  0  0  0  0  0  0  0  0
    7.0830   14.6820   10.3580 H   0  0  0  0  0  0  0  0  0  0  0  0
    1.5840   16.4990   10.8650 H   0  0  0  0  0  0  0  0  0  0  0  0
    4.0360   12.1620   10.8620 H   0  0  0  0  0  0  0  0  0  0  0  0
    4.0030   12.4300    9.0960 H   0  0  0  0  0  0  0  0  0  0  0  0
    1.8430   14.0530   10.6540 H   0  0  0  0  0  0  0  0  0  0  0  0
    6.3410   12.2120    9.2390 H   0  0  0  0  0  0  0  0  0  0  0  0
    6.3200   12.5700   10.9940 H   0  0  0  0  0  0  0  0  0  0  0  0
  1  2  2  0  0  0  0
  2  3  1  0  0  0  0
  2  4  1  0  0  0  0
  3  8  1  0  0  0  0
  3 32  1  0  0  0  0
  4  5  2  0  0  0  0
  4  7  1  0  0  0  0
  5  6  1  0  0  0  0
  5 33  1  0  0  0  0
  6 10  2  0  0  0  0
  6 34  1  0  0  0  0
  7  9  2  0  0  0  0
  7 35  1  0  0  0  0
  8 11  1  0  0  0  0
  8 16  1  0  0  0  0
  8 36  1  0  0  0  0
  9 10  1  0  0  0  0
  9 37  1  0  0  0  0
 10 38  1  0  0  0  0
 11 12  1  0  0  0  0
 11 18  2  0  0  0  0
 12 13  1  0  0  0  0
 12 14  2  0  0  0  0
 13 39  1  0  0  0  0
 14 15  1  0  0  0  0
 14 40  1  0  0  0  0
 15 17  1  0  0  0  0
 15 19  2  0  0  0  0
 16 21  2  0  0  0  0
 16 22  1  0  0  0  0
 17 20  1  0  0  0  0
 18 19  1  0  0  0  0
 18 41  1  0  0  0  0
 19 42  1  0  0  0  0
 20 23  1  0  0  0  0
 20 43  1  0  0  0  0
 20 44  1  0  0  0  0
 23 24  2  0  0  0  0
 23 28  1  0  0  0  0
 24 25  1  0  0  0  0
 25 26  1  0  0  0  0
 25 27  2  0  0  0  0
 26 31  1  0  0  0  0
 26 45  1  0  0  0  0
 26 46  1  0  0  0  0
 27 29  1  0  0  0  0
 27 30  1  0  0  0  0
 28 30  2  0  0  0  0
 28 47  1  0  0  0  0
 29 31  1  0  0  0  0
 29 48  1  0  0  0  0
 29 49  1  0  0  0  0
 30 50  1  0  0  0  0
 31 51  1  0  0  0  0
 31 52  1  0  0  0  0
M  CHG  1  22  -1
M  END
> <rseq>
1

> <mseq>
279

> <S>
-6.337441

> <rmsd_refine>
1.126878

> <E_conf>
-7.225231

> <E_score1>
-11.68141

> <E_refine>
-35.23666

> <E_score2>
-6.337441

>  <$File>
outputs/pdb_4j58_cleaned.pdb_2024_06_17__22_47_40_V2_BS398_MIN1_/SDF/sdf_db.sdf

> <Rec_index>
1

>  <PLIF_raw>
[[4,7,9,10,6,5],[1519,1519,1519,1519,1519,1519],[102,102,102,102,102,102],[10,10,10,10,10,10],[0.9,0.9,0.9,0.9,0.9,0.9]]

> <FP:PLIF>
22

>  <PLIF_ligidx>
[[4,7,9,10,6,5]]

$$$$
279
  MOE2022           3D

 56 58  0  0  1  0  0  0  0  0999 V2000
    2.7300   16.2020   21.0040 C   0  0  0  0  0  0  0  0  0  0  0  0
    1.5290   15.6760   21.4530 C   0  0  0  0  0  0  0  0  0  0  0  0
    2.7890   16.8890   19.8000 C   0  0  0  0  0  0  0  0  0  0  0  0
    0.3810   15.8230   20.6830 C   0  0  0  0  0  0  0  0  0  0  0  0
    0.4420   16.4950   19.4670 C   0  0  0  0  0  0  0  0  0  0  0  0
    1.6430   17.0480   19.0180 C   0  0  0  0  0  0  0  0  0  0  0  0
    1.6640   17.8000   17.6930 C   0  0  1  0  0  0  0  0  0  0  0  0
    2.8850   18.6010   17.5340 N   0  0  0  0  0  0  0  0  0  0  0  0
    1.4110   16.8320   16.5160 C   0  0  0  0  0  0  0  0  0  0  0  0
    2.8910   19.9420   17.5690 C   0  0  0  0  0  0  0  0  0  0  0  0
    1.4690   17.4110   15.1390 N   0  0  0  0  0  0  0  0  0  0  0  0
    0.5440   18.3620   14.7220 C   0  0  0  0  0  0  0  0  0  0  0  0
   -0.4040   18.7270   15.5990 O   0  0  0  0  0  0  0  0  0  0  0  0
    2.4470   16.9450   14.2290 C   0  0  0  0  0  0  0  0  0  0  0  0
    4.2210   20.6070   17.9750 C   0  0  1  0  0  0  0  0  0  0  0  0
    3.3000   16.1550   14.6640 O   0  0  0  0  0  0  0  0  0  0  0  0
    2.4080   17.4280   12.8650 C   0  0  0  0  0  0  0  0  0  0  0  0
    3.2780   16.8530   11.8610 C   0  0  0  0  0  0  0  0  0  0  0  0
    3.7290   15.7140   11.8940 O   0  0  0  0  0  0  0  0  0  0  0  0
    1.8830   20.6180   17.3640 O   0  0  0  0  0  0  0  0  0  0  0  0
    0.5790   18.8960   13.4560 C   0  0  0  0  0  0  0  0  0  0  0  0
    3.6050   17.6230   10.7880 O   0  0  0  0  0  0  0  0  0  0  0  0
    5.2920   20.4950   16.8810 C   0  0  0  0  0  0  0  0  0  0  0  0
    1.5150   18.4250   12.5260 C   0  0  0  0  0  0  0  0  0  0  0  0
    4.0390   22.0080   18.3520 N   0  0  0  0  0  0  0  0  0  0  0  0
    5.0380   22.8920   18.4550 C   0  0  0  0  0  0  0  0  0  0  0  0
    6.6030   21.1770   17.3320 C   0  0  1  0  0  0  0  0  0  0  0  0
    4.9120   23.9300   19.0980 O   0  0  0  0  0  0  0  0  0  0  0  0
    6.3070   22.6600   17.6220 C   0  0  0  0  0  0  0  0  0  0  0  0
    7.2640   20.5090   18.5520 C   0  0  0  0  0  0  0  0  0  0  0  0
    4.3900   17.1280    9.6720 C   0  0  0  0  0  0  0  0  0  0  0  0
    3.6070   16.0780   21.5810 H   0  0  0  0  0  0  0  0  0  0  0  0
    1.5020   15.1700   22.3800 H   0  0  0  0  0  0  0  0  0  0  0  0
    3.7170   17.2900   19.4930 H   0  0  0  0  0  0  0  0  0  0  0  0
   -0.5420   15.4250   21.0150 H   0  0  0  0  0  0  0  0  0  0  0  0
   -0.4360   16.5900   18.8820 H   0  0  0  0  0  0  0  0  0  0  0  0
    0.8240   18.4780   17.7340 H   0  0  0  0  0  0  0  0  0  0  0  0
    3.7590   18.1170   17.6530 H   0  0  0  0  0  0  0  0  0  0  0  0
    2.0970   16.0050   16.6270 H   0  0  0  0  0  0  0  0  0  0  0  0
    0.4450   16.3660   16.6540 H   0  0  0  0  0  0  0  0  0  0  0  0
   -0.2990   18.2670   16.4520 H   0  0  0  0  0  0  0  0  0  0  0  0
    4.5770   20.0720   18.8550 H   0  0  0  0  0  0  0  0  0  0  0  0
   -0.1150   19.6450   13.1740 H   0  0  0  0  0  0  0  0  0  0  0  0
    5.4790   19.4440   16.6690 H   0  0  0  0  0  0  0  0  0  0  0  0
    4.9270   20.9720   15.9690 H   0  0  0  0  0  0  0  0  0  0  0  0
    1.5030   18.8250   11.5440 H   0  0  0  0  0  0  0  0  0  0  0  0
    3.1470   22.2450   18.7640 H   0  0  0  0  0  0  0  0  0  0  0  0
    7.3150   21.1250   16.5070 H   0  0  0  0  0  0  0  0  0  0  0  0
    6.1660   23.1690   16.6670 H   0  0  0  0  0  0  0  0  0  0  0  0
    7.1610   23.1170   18.1220 H   0  0  0  0  0  0  0  0  0  0  0  0
    7.4230   19.4500   18.3550 H   0  0  0  0  0  0  0  0  0  0  0  0
    8.2340   20.9710   18.7400 H   0  0  0  0  0  0  0  0  0  0  0  0
    6.6500   20.6220   19.4450 H   0  0  0  0  0  0  0  0  0  0  0  0
    3.8720   16.3050    9.1800 H   0  0  0  0  0  0  0  0  0  0  0  0
    4.5460   17.9240    8.9430 H   0  0  0  0  0  0  0  0  0  0  0  0
    5.3630   16.7750   10.0140 H   0  0  0  0  0  0  0  0  0  0  0  0
  1  2  2  0  0  0  0
  1  3  1  0  0  0  0
  1 32  1  0  0  0  0
  2  4  1  0  0  0  0
  2 33  1  0  0  0  0
  3  6  2  0  0  0  0
  3 34  1  0  0  0  0
  4  5  2  0  0  0  0
  4 35  1  0  0  0  0
  5  6  1  0  0  0  0
  5 36  1  0  0  0  0
  6  7  1  0  0  0  0
  7  8  1  0  0  0  0
  7  9  1  0  0  0  0
  7 37  1  0  0  0  0
  8 10  1  0  0  0  0
  8 38  1  0  0  0  0
  9 11  1  0  0  0  0
  9 39  1  0  0  0  0
  9 40  1  0  0  0  0
 10 15  1  0  0  0  0
 10 20  2  0  0  0  0
 11 12  1  0  0  0  0
 11 14  1  0  0  0  0
 12 13  1  0  0  0  0
 12 21  2  0  0  0  0
 13 41  1  0  0  0  0
 14 16  2  0  0  0  0
 14 17  1  0  0  0  0
 15 23  1  0  0  0  0
 15 25  1  0  0  0  0
 15 42  1  0  0  0  0
 17 18  1  0  0  0  0
 17 24  2  0  0  0  0
 18 19  2  0  0  0  0
 18 22  1  0  0  0  0
 21 24  1  0  0  0  0
 21 43  1  0  0  0  0
 22 31  1  0  0  0  0
 23 27  1  0  0  0  0
 23 44  1  0  0  0  0
 23 45  1  0  0  0  0
 24 46  1  0  0  0  0
 25 26  1  0  0  0  0
 25 47  1  0  0  0  0
 26 28  2  0  0  0  0
 26 29  1  0  0  0  0
 27 29  1  0  0  0  0
 27 30  1  0  0  0  0
 27 48  1  0  0  0  0
 29 49  1  0  0  0  0
 29 50  1  0  0  0  0
 30 51  1  0  0  0  0
 30 52  1  0  0  0  0
 30 53  1  0  0  0  0
 31 54  1  0  0  0  0
 31 55  1  0  0  0  0
 31 56  1  0  0  0  0
M  END
> <rseq>
1

> <mseq>
280

> <S>
-6.416699

> <rmsd_refine>
1.384907

> <E_conf>
-58.66372

> <E_score1>
-9.024159

> <E_refine>
-32.71484

> <E_score2>
-6.416699

>  <$File>
outputs/pdb_4j58_cleaned.pdb_2024_06_17__22_47_40_V2_BS398_MIN1_/SDF/sdf_db.sdf

> <Rec_index>
1

>  <PLIF_raw>
[28,1872,125,2,1.8]

> <FP:PLIF>
29 46

>  <PLIF_ligidx>
[28,28]

$$$$
280
  MOE2022           3D

 56 58  0  0  1  0  0  0  0  0999 V2000
    3.2270   17.1890   19.4280 O   0  0  0  0  0  0  0  0  0  0  0  0
    2.3110   17.5520   18.6930 C   0  0  0  0  0  0  0  0  0  0  0  0
    2.4880   18.6760   17.9260 N   0  0  0  0  0  0  0  0  0  0  0  0
    1.0400   16.8280   18.5710 C   0  0  0  0  0  0  0  0  0  0  0  0
    0.0120   17.2800   17.7240 C   0  0  0  0  0  0  0  0  0  0  0  0
   -1.1650   16.5540   17.5850 C   0  0  0  0  0  0  0  0  0  0  0  0
    0.8420   15.6330   19.2790 C   0  0  0  0  0  0  0  0  0  0  0  0
    3.7790   19.1300   17.4100 C   0  0  1  0  0  0  0  0  0  0  0  0
   -0.3340   14.9060   19.1270 C   0  0  0  0  0  0  0  0  0  0  0  0
   -1.3380   15.3650   18.2840 C   0  0  0  0  0  0  0  0  0  0  0  0
    3.7290   19.1550   15.8800 C   0  0  0  0  0  0  0  0  0  0  0  0
    3.3830   18.0010   15.1560 C   0  0  0  0  0  0  0  0  0  0  0  0
    3.2260   16.7930   15.7830 O   0  0  0  0  0  0  0  0  0  0  0  0
    3.1910   18.0290   13.7790 C   0  0  0  0  0  0  0  0  0  0  0  0
    3.3990   19.2240   13.0990 C   0  0  0  0  0  0  0  0  0  0  0  0
    4.1670   20.4720   18.0560 C   0  0  0  0  0  0  0  0  0  0  0  0
    3.1790   19.3300   11.7390 O   0  0  0  0  0  0  0  0  0  0  0  0
    3.8130   20.3680   13.7830 C   0  0  0  0  0  0  0  0  0  0  0  0
    5.1750   21.2760   17.2210 C   0  0  1  0  0  0  0  0  0  0  0  0
    3.9970   20.3330   15.1670 C   0  0  0  0  0  0  0  0  0  0  0  0
    3.6340   18.4450   10.6670 C   0  0  0  0  0  0  0  0  0  0  0  0
    4.4830   21.5830   15.8830 C   0  0  0  0  0  0  0  0  0  0  0  0
    3.0330   17.0540   10.6680 C   0  0  0  0  0  0  0  0  0  0  0  0
    5.6800   22.5540   17.9140 C   0  0  0  0  0  0  0  0  0  0  0  0
    1.8930   16.8440   10.2610 O   0  0  0  0  0  0  0  0  0  0  0  0
    3.8330   16.0740   11.1160 N   0  0  0  0  0  0  0  0  0  0  0  0
    3.4960   14.6560   11.1400 C   0  0  0  0  0  0  0  0  0  0  0  0
    6.6460   23.1330   17.3710 O   0  0  0  0  0  0  0  0  0  0  0  0
    4.1940   13.9230    9.9870 C   0  0  0  0  0  0  0  0  0  0  0  0
    5.7200   13.8800   10.1440 C   0  0  0  0  0  0  0  0  0  0  0  0
    5.1210   22.9340   18.9700 O   0  5  0  0  0  0  0  0  0  0  0  0
    1.6770   19.0250   17.3980 H   0  0  0  0  0  0  0  0  0  0  0  0
    0.1200   18.1780   17.1750 H   0  0  0  0  0  0  0  0  0  0  0  0
   -1.9300   16.9060   16.9430 H   0  0  0  0  0  0  0  0  0  0  0  0
    1.6000   15.2690   19.9230 H   0  0  0  0  0  0  0  0  0  0  0  0
    4.5450   18.4250   17.6830 H   0  0  0  0  0  0  0  0  0  0  0  0
   -0.4680   13.9940   19.6440 H   0  0  0  0  0  0  0  0  0  0  0  0
   -2.2330   14.8090   18.1710 H   0  0  0  0  0  0  0  0  0  0  0  0
    2.8940   16.1190   15.1590 H   0  0  0  0  0  0  0  0  0  0  0  0
    2.8720   17.1580   13.2740 H   0  0  0  0  0  0  0  0  0  0  0  0
    3.2680   21.0780   18.1900 H   0  0  0  0  0  0  0  0  0  0  0  0
    4.5880   20.2690   19.0410 H   0  0  0  0  0  0  0  0  0  0  0  0
    3.9850   21.2650   13.2460 H   0  0  0  0  0  0  0  0  0  0  0  0
    6.0430   20.6440   17.0300 H   0  0  0  0  0  0  0  0  0  0  0  0
    3.3930   18.9280    9.7300 H   0  0  0  0  0  0  0  0  0  0  0  0
    4.7110   18.3900   10.7040 H   0  0  0  0  0  0  0  0  0  0  0  0
    3.6310   22.2420   16.0570 H   0  0  0  0  0  0  0  0  0  0  0  0
    5.1900   22.1090   15.2390 H   0  0  0  0  0  0  0  0  0  0  0  0
    4.7510   16.3190   11.4480 H   0  0  0  0  0  0  0  0  0  0  0  0
    3.8120   14.2240   12.0900 H   0  0  0  0  0  0  0  0  0  0  0  0
    2.4170   14.5230   11.0460 H   0  0  0  0  0  0  0  0  0  0  0  0
    3.8210   12.8980    9.9550 H   0  0  0  0  0  0  0  0  0  0  0  0
    3.9390   14.4080    9.0430 H   0  0  0  0  0  0  0  0  0  0  0  0
    6.1320   14.8890   10.1610 H   0  0  0  0  0  0  0  0  0  0  0  0
    5.9770   13.3630   11.0690 H   0  0  0  0  0  0  0  0  0  0  0  0
    6.1550   13.3370    9.3040 H   0  0  0  0  0  0  0  0  0  0  0  0
  1  2  2  0  0  0  0
  2  3  1  0  0  0  0
  2  4  1  0  0  0  0
  3  8  1  0  0  0  0
  3 32  1  0  0  0  0
  4  5  2  0  0  0  0
  4  7  1  0  0  0  0
  5  6  1  0  0  0  0
  5 33  1  0  0  0  0
  6 10  2  0  0  0  0
  6 34  1  0  0  0  0
  7  9  2  0  0  0  0
  7 35  1  0  0  0  0
  8 11  1  0  0  0  0
  8 16  1  0  0  0  0
  8 36  1  0  0  0  0
  9 10  1  0  0  0  0
  9 37  1  0  0  0  0
 10 38  1  0  0  0  0
 11 12  1  0  0  0  0
 11 20  2  0  0  0  0
 12 13  1  0  0  0  0
 12 14  2  0  0  0  0
 13 39  1  0  0  0  0
 14 15  1  0  0  0  0
 14 40  1  0  0  0  0
 15 17  1  0  0  0  0
 15 18  2  0  0  0  0
 16 19  1  0  0  0  0
 16 41  1  0  0  0  0
 16 42  1  0  0  0  0
 17 21  1  0  0  0  0
 18 20  1  0  0  0  0
 18 43  1  0  0  0  0
 19 22  1  0  0  0  0
 19 24  1  0  0  0  0
 19 44  1  0  0  0  0
 20 22  1  0  0  0  0
 21 23  1  0  0  0  0
 21 45  1  0  0  0  0
 21 46  1  0  0  0  0
 22 47  1  0  0  0  0
 22 48  1  0  0  0  0
 23 25  2  0  0  0  0
 23 26  1  0  0  0  0
 24 28  2  0  0  0  0
 24 31  1  0  0  0  0
 26 27  1  0  0  0  0
 26 49  1  0  0  0  0
 27 29  1  0  0  0  0
 27 50  1  0  0  0  0
 27 51  1  0  0  0  0
 29 30  1  0  0  0  0
 29 52  1  0  0  0  0
 29 53  1  0  0  0  0
 30 54  1  0  0  0  0
 30 55  1  0  0  0  0
 30 56  1  0  0  0  0
M  CHG  1  31  -1
M  END
> <rseq>
1

> <mseq>
281

> <S>
-5.996054

> <rmsd_refine>
1.550359

> <E_conf>
-130.2315

> <E_score1>
-11.34167

> <E_refine>
-28.61465

> <E_score2>
-5.996054

>  <$File>
outputs/pdb_4j58_cleaned.pdb_2024_06_17__22_47_40_V2_BS398_MIN1_/SDF/sdf_db.sdf

> <Rec_index>
1

>  <PLIF_raw>
[31,1872,125,7,3.113868193]

> <FP:PLIF>
13

>  <PLIF_ligidx>
31

$$$$
281
  MOE2022           3D

 62 64  0  0  0  0  0  0  0  0999 V2000
    6.1560   14.4620   10.0710 C   0  0  0  0  0  0  0  0  0  0  0  0
    5.8030   15.7210    9.5990 C   0  0  0  0  0  0  0  0  0  0  0  0
    4.5500   16.2490    9.8900 C   0  0  0  0  0  0  0  0  0  0  0  0
    3.6300   15.5170   10.6520 C   0  0  0  0  0  0  0  0  0  0  0  0
    3.9910   14.2420   11.1060 C   0  0  0  0  0  0  0  0  0  0  0  0
    5.2480   13.7210   10.8200 C   0  0  0  0  0  0  0  0  0  0  0  0
    2.3040   16.0670   10.9280 C   0  0  0  0  0  0  0  0  0  0  0  0
    1.8190   16.1350   12.2300 N   0  0  0  0  0  0  0  0  0  0  0  0
    1.5910   16.4810   10.0170 O   0  0  0  0  0  0  0  0  0  0  0  0
    2.7100   16.1600   13.4090 C   0  0  0  0  0  0  0  0  0  0  0  0
    0.4410   16.6040   12.4990 C   0  0  0  0  0  0  0  0  0  0  0  0
    2.0680   15.5490   14.6640 C   0  0  0  0  0  0  0  0  0  0  0  0
   -0.1730   15.9930   13.7710 C   0  0  0  0  0  0  0  0  0  0  0  0
    0.7290   16.0960   14.9290 N   0  0  0  0  0  0  0  0  0  0  0  0
    0.2860   16.5020   16.1810 C   0  0  0  0  0  0  0  0  0  0  0  0
   -0.9250   16.5720   16.3780 O   0  0  0  0  0  0  0  0  0  0  0  0
    1.2440   16.8530   17.2260 C   0  0  0  0  0  0  0  0  0  0  0  0
    2.2530   17.7920   16.9860 C   0  0  0  0  0  0  0  0  0  0  0  0
    1.1410   16.2700   18.4950 C   0  0  0  0  0  0  0  0  0  0  0  0
    2.0440   16.5960   19.5040 C   0  0  0  0  0  0  0  0  0  0  0  0
    3.1550   18.1260   17.9950 C   0  0  0  0  0  0  0  0  0  0  0  0
    3.0580   17.5160   19.2530 C   0  0  0  0  0  0  0  0  0  0  0  0
    1.9070   15.9660   20.8730 C   0  0  0  0  0  0  0  0  0  0  0  0
    4.1500   19.0900   17.6440 N   0  0  0  0  0  0  0  0  0  0  0  0
    5.0690   19.7590   18.4320 C   0  0  0  0  0  0  0  0  0  0  0  0
    5.1110   19.6080   19.6380 O   0  0  0  0  0  0  0  0  0  0  0  0
    5.9620   20.7290   17.6710 C   0  0  0  0  0  0  0  0  0  0  0  0
    7.3330   21.1390   18.2840 C   0  0  0  0  0  0  0  0  0  0  0  0
    7.1530   21.9400   19.5830 C   0  0  0  0  0  0  0  0  0  0  0  0
    8.0790   22.0340   17.2740 C   0  0  0  0  0  0  0  0  0  0  0  0
    8.2070   19.9070   18.5630 C   0  0  0  0  0  0  0  0  0  0  0  0
    7.1120   14.0610    9.8570 H   0  0  0  0  0  0  0  0  0  0  0  0
    6.4880   16.2740    9.0110 H   0  0  0  0  0  0  0  0  0  0  0  0
    4.2870   17.2090    9.5250 H   0  0  0  0  0  0  0  0  0  0  0  0
    3.3010   13.6670   11.6690 H   0  0  0  0  0  0  0  0  0  0  0  0
    5.5170   12.7570   11.1680 H   0  0  0  0  0  0  0  0  0  0  0  0
    3.6370   15.6460   13.2190 H   0  0  0  0  0  0  0  0  0  0  0  0
    2.9840   17.1850   13.6190 H   0  0  0  0  0  0  0  0  0  0  0  0
    0.4480   17.6810   12.5950 H   0  0  0  0  0  0  0  0  0  0  0  0
   -0.2130   16.3860   11.6660 H   0  0  0  0  0  0  0  0  0  0  0  0
    1.9810   14.4820   14.5150 H   0  0  0  0  0  0  0  0  0  0  0  0
    2.7340   15.6630   15.5070 H   0  0  0  0  0  0  0  0  0  0  0  0
   -1.1240   16.4700   13.9630 H   0  0  0  0  0  0  0  0  0  0  0  0
   -0.3970   14.9510   13.5890 H   0  0  0  0  0  0  0  0  0  0  0  0
    2.3260   18.2550   16.0350 H   0  0  0  0  0  0  0  0  0  0  0  0
    0.3660   15.5720   18.6860 H   0  0  0  0  0  0  0  0  0  0  0  0
    3.7400   17.7450   20.0230 H   0  0  0  0  0  0  0  0  0  0  0  0
    2.8480   16.0090   21.4220 H   0  0  0  0  0  0  0  0  0  0  0  0
    1.1440   16.4870   21.4520 H   0  0  0  0  0  0  0  0  0  0  0  0
    1.6140   14.9210   20.7860 H   0  0  0  0  0  0  0  0  0  0  0  0
    4.1700   19.3500   16.6470 H   0  0  0  0  0  0  0  0  0  0  0  0
    6.1420   20.3120   16.6900 H   0  0  0  0  0  0  0  0  0  0  0  0
    5.3830   21.6210   17.4700 H   0  0  0  0  0  0  0  0  0  0  0  0
    6.7270   21.3160   20.3650 H   0  0  0  0  0  0  0  0  0  0  0  0
    8.1220   22.2820   19.9370 H   0  0  0  0  0  0  0  0  0  0  0  0
    6.5090   22.8030   19.4100 H   0  0  0  0  0  0  0  0  0  0  0  0
    9.0450   22.3400   17.6810 H   0  0  0  0  0  0  0  0  0  0  0  0
    8.2530   21.4920   16.3440 H   0  0  0  0  0  0  0  0  0  0  0  0
    7.4930   22.9290   17.0580 H   0  0  0  0  0  0  0  0  0  0  0  0
    9.1790   20.2200   18.9440 H   0  0  0  0  0  0  0  0  0  0  0  0
    7.7360   19.2640   19.3050 H   0  0  0  0  0  0  0  0  0  0  0  0
    8.3630   19.3460   17.6430 H   0  0  0  0  0  0  0  0  0  0  0  0
  1  2  2  0  0  0  0
  1  6  1  0  0  0  0
  1 32  1  0  0  0  0
  2  3  1  0  0  0  0
  2 33  1  0  0  0  0
  3  4  2  0  0  0  0
  3 34  1  0  0  0  0
  4  5  1  0  0  0  0
  4  7  1  0  0  0  0
  5  6  2  0  0  0  0
  5 35  1  0  0  0  0
  6 36  1  0  0  0  0
  7  8  1  0  0  0  0
  7  9  2  0  0  0  0
  8 10  1  0  0  0  0
  8 11  1  0  0  0  0
 10 12  1  0  0  0  0
 10 37  1  0  0  0  0
 10 38  1  0  0  0  0
 11 13  1  0  0  0  0
 11 39  1  0  0  0  0
 11 40  1  0  0  0  0
 12 14  1  0  0  0  0
 12 41  1  0  0  0  0
 12 42  1  0  0  0  0
 13 14  1  0  0  0  0
 13 43  1  0  0  0  0
 13 44  1  0  0  0  0
 14 15  1  0  0  0  0
 15 16  2  0  0  0  0
 15 17  1  0  0  0  0
 17 18  2  0  0  0  0
 17 19  1  0  0  0  0
 18 21  1  0  0  0  0
 18 45  1  0  0  0  0
 19 20  2  0  0  0  0
 19 46  1  0  0  0  0
 20 22  1  0  0  0  0
 20 23  1  0  0  0  0
 21 22  2  0  0  0  0
 21 24  1  0  0  0  0
 22 47  1  0  0  0  0
 23 48  1  0  0  0  0
 23 49  1  0  0  0  0
 23 50  1  0  0  0  0
 24 25  1  0  0  0  0
 24 51  1  0  0  0  0
 25 26  2  0  0  0  0
 25 27  1  0  0  0  0
 27 28  1  0  0  0  0
 27 52  1  0  0  0  0
 27 53  1  0  0  0  0
 28 29  1  0  0  0  0
 28 30  1  0  0  0  0
 28 31  1  0  0  0  0
 29 54  1  0  0  0  0
 29 55  1  0  0  0  0
 29 56  1  0  0  0  0
 30 57  1  0  0  0  0
 30 58  1  0  0  0  0
 30 59  1  0  0  0  0
 31 60  1  0  0  0  0
 31 61  1  0  0  0  0
 31 62  1  0  0  0  0
M  END
> <rseq>
1

> <mseq>
282

> <S>
-7.789065

> <rmsd_refine>
1.037738

> <E_conf>
-13.93761

> <E_score1>
-10.74347

> <E_refine>
-42.7289

> <E_score2>
-7.789065

>  <$File>
outputs/pdb_4j58_cleaned.pdb_2024_06_17__22_47_40_V2_BS398_MIN1_/SDF/sdf_db.sdf

> <Rec_index>
1

>  <PLIF_raw>
[[26,1,6,5,4,3,2],[1499,820,820,820,820,820,820],[101,54,54,54,54,54,54],[4,10,10,10,10,10,10],[1.3,0.6,0.6,0.6,0.6,0.6,0.6]]

> <FP:PLIF>
2 11

>  <PLIF_ligidx>
[[1,6,5,4,3,2],26]

$$$$
282
  MOE2022           3D

 60 62  0  0  1  0  0  0  0  0999 V2000
    7.3390   21.2020   19.2840 C   0  0  0  0  0  0  0  0  0  0  0  0
    6.6300   20.1060   18.8080 C   0  0  0  0  0  0  0  0  0  0  0  0
    5.3390   20.2840   18.3110 C   0  0  0  0  0  0  0  0  0  0  0  0
    4.6890   19.1700   17.8140 O   0  0  0  0  0  0  0  0  0  0  0  0
    3.3650   19.1360   17.2060 C   0  0  1  0  0  0  0  0  0  0  0  0
    4.7460   21.5500   18.3080 C   0  0  0  0  0  0  0  0  0  0  0  0
    6.7580   22.4670   19.2720 C   0  0  0  0  0  0  0  0  0  0  0  0
    5.4640   22.6400   18.7880 C   0  0  0  0  0  0  0  0  0  0  0  0
    3.3370   19.7090   15.7870 C   0  0  0  0  0  0  0  0  0  0  0  0
    4.2430   20.4470   15.3970 O   0  0  0  0  0  0  0  0  0  0  0  0
    2.8000   17.7130   17.2680 C   0  0  0  0  0  0  0  0  0  0  0  0
    2.2720   19.4350   14.9930 N   0  0  0  0  0  0  0  0  0  0  0  0
    1.3900   17.6800   16.6750 C   0  0  0  0  0  0  0  0  0  0  0  0
    0.4810   18.4330   17.5190 N   0  0  0  0  0  0  0  0  0  0  0  0
    1.4250   18.2290   15.2190 C   0  0  1  0  0  0  0  0  0  0  0  0
    0.8990   16.3260   16.6750 N   0  0  0  0  0  0  0  0  0  0  0  0
    2.1030   20.1280   13.7030 C   0  0  0  0  0  0  0  0  0  0  0  0
    0.0820   18.4290   14.7070 O   0  0  0  0  0  0  0  0  0  0  0  0
    2.5020   19.2680   12.5010 C   0  0  0  0  0  0  0  0  0  0  0  0
    3.6410   19.3110   12.0420 O   0  0  0  0  0  0  0  0  0  0  0  0
    1.5410   18.5200   11.9270 O   0  0  0  0  0  0  0  0  0  0  0  0
    1.7180   17.7620   10.6970 C   0  0  0  0  0  0  0  0  0  0  0  0
    2.6320   16.5450   10.8430 C   0  0  0  0  0  0  0  0  0  0  0  0
    3.8600   16.4630   10.1550 C   0  0  0  0  0  0  0  0  0  0  0  0
    2.2250   15.4840   11.6660 C   0  0  0  0  0  0  0  0  0  0  0  0
    4.2680   17.5680    9.1830 C   0  0  0  0  0  0  0  0  0  0  0  0
    4.6960   15.3520   10.3520 C   0  0  0  0  0  0  0  0  0  0  0  0
    6.0510   15.2120    9.6810 C   0  0  0  0  0  0  0  0  0  0  0  0
    0.8820   15.4740   12.3770 C   0  0  0  0  0  0  0  0  0  0  0  0
    4.2820   14.3210   11.1870 C   0  0  0  0  0  0  0  0  0  0  0  0
    3.0570   14.3830   11.8320 C   0  0  0  0  0  0  0  0  0  0  0  0
    8.3250   21.0770   19.6500 H   0  0  0  0  0  0  0  0  0  0  0  0
    7.0720   19.1460   18.8160 H   0  0  0  0  0  0  0  0  0  0  0  0
    2.7230   19.7510   17.8210 H   0  0  0  0  0  0  0  0  0  0  0  0
    3.7640   21.6930   17.9400 H   0  0  0  0  0  0  0  0  0  0  0  0
    7.3030   23.2970   19.6330 H   0  0  0  0  0  0  0  0  0  0  0  0
    5.0270   23.6050   18.7800 H   0  0  0  0  0  0  0  0  0  0  0  0
    3.4470   17.0510   16.6910 H   0  0  0  0  0  0  0  0  0  0  0  0
    2.7820   17.3730   18.3050 H   0  0  0  0  0  0  0  0  0  0  0  0
    0.7340   19.4100   17.4880 H   0  0  0  0  0  0  0  0  0  0  0  0
    0.5490   18.0890   18.4640 H   0  0  0  0  0  0  0  0  0  0  0  0
    1.8570   17.4420   14.6150 H   0  0  0  0  0  0  0  0  0  0  0  0
    0.9490   15.9580   17.6130 H   0  0  0  0  0  0  0  0  0  0  0  0
   -0.0680   16.3520   16.3840 H   0  0  0  0  0  0  0  0  0  0  0  0
    1.0630   20.4310   13.5860 H   0  0  0  0  0  0  0  0  0  0  0  0
    2.6900   21.0460   13.6770 H   0  0  0  0  0  0  0  0  0  0  0  0
    0.1110   18.5750   13.7480 H   0  0  0  0  0  0  0  0  0  0  0  0
    0.7430   17.4380   10.3620 H   0  0  0  0  0  0  0  0  0  0  0  0
    2.0450   18.4510    9.9330 H   0  0  0  0  0  0  0  0  0  0  0  0
    4.4990   18.4870    9.7190 H   0  0  0  0  0  0  0  0  0  0  0  0
    5.1310   17.3130    8.5750 H   0  0  0  0  0  0  0  0  0  0  0  0
    3.4650   17.7680    8.4740 H   0  0  0  0  0  0  0  0  0  0  0  0
    6.5930   14.3400   10.0490 H   0  0  0  0  0  0  0  0  0  0  0  0
    5.9360   15.0990    8.6030 H   0  0  0  0  0  0  0  0  0  0  0  0
    6.6680   16.0860    9.8810 H   0  0  0  0  0  0  0  0  0  0  0  0
    0.8200   16.2730   13.1090 H   0  0  0  0  0  0  0  0  0  0  0  0
    0.0670   15.5920   11.6620 H   0  0  0  0  0  0  0  0  0  0  0  0
    0.7190   14.5350   12.9060 H   0  0  0  0  0  0  0  0  0  0  0  0
    4.9010   13.4740   11.3320 H   0  0  0  0  0  0  0  0  0  0  0  0
    2.7550   13.5800   12.4530 H   0  0  0  0  0  0  0  0  0  0  0  0
  1  2  1  0  0  0  0
  1  7  2  0  0  0  0
  1 32  1  0  0  0  0
  2  3  2  0  0  0  0
  2 33  1  0  0  0  0
  3  4  1  0  0  0  0
  3  6  1  0  0  0  0
  4  5  1  0  0  0  0
  5  9  1  0  0  0  0
  5 11  1  0  0  0  0
  5 34  1  0  0  0  0
  6  8  2  0  0  0  0
  6 35  1  0  0  0  0
  7  8  1  0  0  0  0
  7 36  1  0  0  0  0
  8 37  1  0  0  0  0
  9 10  2  0  0  0  0
  9 12  1  0  0  0  0
 11 13  1  0  0  0  0
 11 38  1  0  0  0  0
 11 39  1  0  0  0  0
 12 15  1  0  0  0  0
 12 17  1  0  0  0  0
 13 14  1  0  0  0  0
 13 15  1  0  0  0  0
 13 16  1  0  0  0  0
 14 40  1  0  0  0  0
 14 41  1  0  0  0  0
 15 18  1  0  0  0  0
 15 42  1  0  0  0  0
 16 43  1  0  0  0  0
 16 44  1  0  0  0  0
 17 19  1  0  0  0  0
 17 45  1  0  0  0  0
 17 46  1  0  0  0  0
 18 47  1  0  0  0  0
 19 20  2  0  0  0  0
 19 21  1  0  0  0  0
 21 22  1  0  0  0  0
 22 23  1  0  0  0  0
 22 48  1  0  0  0  0
 22 49  1  0  0  0  0
 23 24  1  0  0  0  0
 23 25  2  0  0  0  0
 24 26  1  0  0  0  0
 24 27  2  0  0  0  0
 25 29  1  0  0  0  0
 25 31  1  0  0  0  0
 26 50  1  0  0  0  0
 26 51  1  0  0  0  0
 26 52  1  0  0  0  0
 27 28  1  0  0  0  0
 27 30  1  0  0  0  0
 28 53  1  0  0  0  0
 28 54  1  0  0  0  0
 28 55  1  0  0  0  0
 29 56  1  0  0  0  0
 29 57  1  0  0  0  0
 29 58  1  0  0  0  0
 30 31  2  0  0  0  0
 30 59  1  0  0  0  0
 31 60  1  0  0  0  0
M  END
> <rseq>
1

> <mseq>
283

> <S>
-5.859217

> <rmsd_refine>
1.267994

> <E_conf>
-27.60882

> <E_score1>
-10.56494

> <E_refine>
-28.80055

> <E_score2>
-5.859217

>  <$File>
outputs/pdb_4j58_cleaned.pdb_2024_06_17__22_47_40_V2_BS398_MIN1_/SDF/sdf_db.sdf

> <Rec_index>
1

>  <PLIF_raw>
[[],[],[],[],[]]

>  <PLIF_ligidx>
[]

$$$$
283
  MOE2022           3D

 49 51  0  0  1  0  0  0  0  0999 V2000
    2.7290   16.7250   20.3480 C   0  0  0  0  0  0  0  0  0  0  0  0
    3.0420   17.3740   19.1570 C   0  0  0  0  0  0  0  0  0  0  0  0
    1.5190   16.0620   20.4930 C   0  0  0  0  0  0  0  0  0  0  0  0
    0.6310   16.0440   19.4230 C   0  0  0  0  0  0  0  0  0  0  0  0
   -0.5570   15.3890   19.5640 O   0  0  0  0  0  0  0  0  0  0  0  0
    2.1710   17.3190   18.0600 C   0  0  0  0  0  0  0  0  0  0  0  0
    0.9410   16.6640   18.2150 C   0  0  0  0  0  0  0  0  0  0  0  0
    2.5690   17.8320   16.7490 C   0  0  0  0  0  0  0  0  0  0  0  0
    2.9230   19.1760   16.4900 C   0  0  0  0  0  0  0  0  0  0  0  0
    3.2610   19.5840   15.1920 C   0  0  0  0  0  0  0  0  0  0  0  0
    2.8790   20.1400   17.5450 N   0  0  0  0  0  0  0  0  0  0  0  0
    3.6460   21.2880   17.6600 C   0  0  0  0  0  0  0  0  0  0  0  0
    4.6210   21.4700   16.9520 O   0  0  0  0  0  0  0  0  0  0  0  0
    2.6060   16.9220   15.6870 C   0  0  0  0  0  0  0  0  0  0  0  0
    2.9620   17.3270   14.3970 C   0  0  0  0  0  0  0  0  0  0  0  0
    2.9900   16.3340   13.3420 N   0  0  0  0  0  0  0  0  0  0  0  0
    3.2840   18.6680   14.1510 C   0  0  0  0  0  0  0  0  0  0  0  0
    3.3990   16.4830   11.9460 C   0  0  0  0  0  0  0  0  0  0  0  0
    2.6550   14.9500   13.5960 N   0  0  0  0  0  0  0  0  0  0  0  0
    3.7410   17.5150   11.3840 O   0  0  0  0  0  0  0  0  0  0  0  0
    3.3340   15.1530   11.4040 C   0  0  0  0  0  0  0  0  0  0  0  0
    3.2310   22.2690   18.7410 C   0  0  0  0  0  0  0  0  0  0  0  0
    2.9090   14.5010   12.4280 C   0  0  0  0  0  0  0  0  0  0  0  0
    3.7560   14.6430   10.0410 C   0  0  0  0  0  0  0  0  0  0  0  0
    3.6510   23.7330   18.5280 C   0  0  2  0  0  0  0  0  0  0  0  0
    5.0420   23.8720   18.7410 O   0  0  0  0  0  0  0  0  0  0  0  0
    2.9240   24.6860   19.4830 C   0  0  0  0  0  0  0  0  0  0  0  0
    5.2740   14.4280    9.9140 C   0  0  0  0  0  0  0  0  0  0  0  0
    5.7340   13.5370   10.8020 F   0  0  0  0  0  0  0  0  0  0  0  0
    5.9740   15.5600   10.1060 F   0  0  0  0  0  0  0  0  0  0  0  0
    5.6160   13.9680    8.7010 F   0  0  0  0  0  0  0  0  0  0  0  0
    3.4200   16.7240   21.1450 H   0  0  0  0  0  0  0  0  0  0  0  0
    3.9580   17.8970   19.0730 H   0  0  0  0  0  0  0  0  0  0  0  0
    1.2790   15.5740   21.4010 H   0  0  0  0  0  0  0  0  0  0  0  0
   -1.0730   15.4390   18.7350 H   0  0  0  0  0  0  0  0  0  0  0  0
    0.2580   16.6200   17.4060 H   0  0  0  0  0  0  0  0  0  0  0  0
    3.4840   20.5980   14.9860 H   0  0  0  0  0  0  0  0  0  0  0  0
    2.2000   19.9680   18.3040 H   0  0  0  0  0  0  0  0  0  0  0  0
    2.3580   15.9100   15.8780 H   0  0  0  0  0  0  0  0  0  0  0  0
    3.5400   19.0060   13.1840 H   0  0  0  0  0  0  0  0  0  0  0  0
    2.1550   22.2240   18.8530 H   0  0  0  0  0  0  0  0  0  0  0  0
    3.6370   21.9390   19.6830 H   0  0  0  0  0  0  0  0  0  0  0  0
    3.2550   13.7080    9.8280 H   0  0  0  0  0  0  0  0  0  0  0  0
    3.4330   15.3400    9.2790 H   0  0  0  0  0  0  0  0  0  0  0  0
    3.4120   24.0190   17.5020 H   0  0  0  0  0  0  0  0  0  0  0  0
    5.4970   23.3190   18.0980 H   0  0  0  0  0  0  0  0  0  0  0  0
    1.8540   24.6650   19.2750 H   0  0  0  0  0  0  0  0  0  0  0  0
    3.0880   24.3820   20.5170 H   0  0  0  0  0  0  0  0  0  0  0  0
    3.2900   25.7030   19.3380 H   0  0  0  0  0  0  0  0  0  0  0  0
  1  2  2  0  0  0  0
  1  3  1  0  0  0  0
  1 32  1  0  0  0  0
  2  6  1  0  0  0  0
  2 33  1  0  0  0  0
  3  4  2  0  0  0  0
  3 34  1  0  0  0  0
  4  5  1  0  0  0  0
  4  7  1  0  0  0  0
  5 35  1  0  0  0  0
  6  7  2  0  0  0  0
  6  8  1  0  0  0  0
  7 36  1  0  0  0  0
  8  9  1  0  0  0  0
  8 14  2  0  0  0  0
  9 10  2  0  0  0  0
  9 11  1  0  0  0  0
 10 17  1  0  0  0  0
 10 37  1  0  0  0  0
 11 12  1  0  0  0  0
 11 38  1  0  0  0  0
 12 13  2  0  0  0  0
 12 22  1  0  0  0  0
 14 15  1  0  0  0  0
 14 39  1  0  0  0  0
 15 16  1  0  0  0  0
 15 17  2  0  0  0  0
 16 18  1  0  0  0  0
 16 19  1  0  0  0  0
 17 40  1  0  0  0  0
 18 20  2  0  0  0  0
 18 21  1  0  0  0  0
 19 23  2  0  0  0  0
 21 23  2  0  0  0  0
 21 24  1  0  0  0  0
 22 25  1  0  0  0  0
 22 41  1  0  0  0  0
 22 42  1  0  0  0  0
 24 28  1  0  0  0  0
 24 43  1  0  0  0  0
 24 44  1  0  0  0  0
 25 26  1  0  0  0  0
 25 27  1  0  0  0  0
 25 45  1  0  0  0  0
 26 46  1  0  0  0  0
 27 47  1  0  0  0  0
 27 48  1  0  0  0  0
 27 49  1  0  0  0  0
 28 29  1  0  0  0  0
 28 30  1  0  0  0  0
 28 31  1  0  0  0  0
M  END
> <rseq>
1

> <mseq>
284

> <S>
-6.218727

> <rmsd_refine>
1.317612

> <E_conf>
-1.362563

> <E_score1>
-10.74365

> <E_refine>
-36.68362

> <E_score2>
-6.218727

>  <$File>
outputs/pdb_4j58_cleaned.pdb_2024_06_17__22_47_40_V2_BS398_MIN1_/SDF/sdf_db.sdf

> <Rec_index>
1

>  <PLIF_raw>
[[11,30,8,9,10,17,15,14],[1504,823,954,954,954,954,954,954],[101,54,62,62,62,62,62,62],[3,2,10,10,10,10,10,10],[1.4,0.6,0.8,0.8,0.8,0.8,0.8,0.8]]

> <FP:PLIF>
6 21 8

>  <PLIF_ligidx>
[30,[8,9,10,17,15,14],11]

$$$$
284
  MOE2022           3D

 54 56  0  0  1  0  0  0  0  0999 V2000
    2.7260   16.1790   21.0560 C   0  0  0  0  0  0  0  0  0  0  0  0
    1.5190   15.6790   21.5170 C   0  0  0  0  0  0  0  0  0  0  0  0
    2.7900   16.8520   19.8450 C   0  0  0  0  0  0  0  0  0  0  0  0
    0.3700   15.8330   20.7500 C   0  0  0  0  0  0  0  0  0  0  0  0
    0.4360   16.4900   19.5260 C   0  0  0  0  0  0  0  0  0  0  0  0
    1.6420   17.0200   19.0670 C   0  0  0  0  0  0  0  0  0  0  0  0
    1.6690   17.7600   17.7370 C   0  0  1  0  0  0  0  0  0  0  0  0
    2.8930   18.5570   17.5860 N   0  0  0  0  0  0  0  0  0  0  0  0
    1.4270   16.7790   16.5690 C   0  0  0  0  0  0  0  0  0  0  0  0
    2.8940   19.8890   17.4330 C   0  0  0  0  0  0  0  0  0  0  0  0
    1.4020   17.3660   15.1970 N   0  0  0  0  0  0  0  0  0  0  0  0
    0.3890   18.2350   14.8100 C   0  0  0  0  0  0  0  0  0  0  0  0
   -0.5690   18.5040   15.7110 O   0  0  0  0  0  0  0  0  0  0  0  0
    2.3990   16.9980   14.2650 C   0  0  0  0  0  0  0  0  0  0  0  0
    4.1710   20.5980   17.8670 C   0  0  1  0  0  0  0  0  0  0  0  0
    3.3240   16.2780   14.6740 O   0  0  0  0  0  0  0  0  0  0  0  0
    2.2930   17.4930   12.9090 C   0  0  0  0  0  0  0  0  0  0  0  0
    3.1930   17.0080   11.8830 C   0  0  0  0  0  0  0  0  0  0  0  0
    3.7330   15.9080   11.8890 O   0  0  0  0  0  0  0  0  0  0  0  0
    1.9220   20.4990   16.9900 O   0  0  0  0  0  0  0  0  0  0  0  0
    0.3540   18.7860   13.5510 C   0  0  0  0  0  0  0  0  0  0  0  0
    3.4420   17.8210   10.8220 O   0  0  0  0  0  0  0  0  0  0  0  0
    5.2660   20.6010   16.7860 C   0  0  0  0  0  0  0  0  0  0  0  0
    1.3100   18.4110   12.5980 C   0  0  0  0  0  0  0  0  0  0  0  0
    3.9280   21.9500   18.3910 N   0  0  0  0  0  0  0  0  0  0  0  0
    4.9460   22.8500   18.5530 C   0  0  0  0  0  0  0  0  0  0  0  0
    6.4470   21.4700   17.1830 C   0  0  0  0  0  0  0  0  0  0  0  0
    4.7110   23.8840   19.1660 O   0  0  0  0  0  0  0  0  0  0  0  0
    4.2450   17.4100    9.6860 C   0  0  0  0  0  0  0  0  0  0  0  0
    7.8100   21.1460   16.6080 C   0  0  0  0  0  0  0  0  0  0  0  0
    6.2550   22.5270   18.0000 C   0  0  0  0  0  0  0  0  0  0  0  0
    3.6030   16.0500   21.6290 H   0  0  0  0  0  0  0  0  0  0  0  0
    1.4910   15.1870   22.4520 H   0  0  0  0  0  0  0  0  0  0  0  0
    3.7230   17.2330   19.5290 H   0  0  0  0  0  0  0  0  0  0  0  0
   -0.5580   15.4550   21.0910 H   0  0  0  0  0  0  0  0  0  0  0  0
   -0.4430   16.5890   18.9420 H   0  0  0  0  0  0  0  0  0  0  0  0
    0.8330   18.4430   17.7660 H   0  0  0  0  0  0  0  0  0  0  0  0
    3.7500   18.1120   17.8680 H   0  0  0  0  0  0  0  0  0  0  0  0
    2.1580   15.9890   16.6510 H   0  0  0  0  0  0  0  0  0  0  0  0
    0.4920   16.2630   16.7390 H   0  0  0  0  0  0  0  0  0  0  0  0
   -0.4060   18.0390   16.5530 H   0  0  0  0  0  0  0  0  0  0  0  0
    4.5770   20.0260   18.6920 H   0  0  0  0  0  0  0  0  0  0  0  0
   -0.4090   19.4740   13.2910 H   0  0  0  0  0  0  0  0  0  0  0  0
    5.5800   19.5840   16.6080 H   0  0  0  0  0  0  0  0  0  0  0  0
    4.8530   20.9610   15.8530 H   0  0  0  0  0  0  0  0  0  0  0  0
    1.2460   18.8210   11.6230 H   0  0  0  0  0  0  0  0  0  0  0  0
    3.0120   22.1460   18.8250 H   0  0  0  0  0  0  0  0  0  0  0  0
    3.7560   16.5920    9.1550 H   0  0  0  0  0  0  0  0  0  0  0  0
    4.3720   18.2440    8.9960 H   0  0  0  0  0  0  0  0  0  0  0  0
    5.2290   17.0750   10.0120 H   0  0  0  0  0  0  0  0  0  0  0  0
    8.5900   21.7520   17.0490 H   0  0  0  0  0  0  0  0  0  0  0  0
    8.0750   20.1120   16.7850 H   0  0  0  0  0  0  0  0  0  0  0  0
    7.8370   21.3200   15.5420 H   0  0  0  0  0  0  0  0  0  0  0  0
    7.0540   23.1700   18.2670 H   0  0  0  0  0  0  0  0  0  0  0  0
  1  2  2  0  0  0  0
  1  3  1  0  0  0  0
  1 32  1  0  0  0  0
  2  4  1  0  0  0  0
  2 33  1  0  0  0  0
  3  6  2  0  0  0  0
  3 34  1  0  0  0  0
  4  5  2  0  0  0  0
  4 35  1  0  0  0  0
  5  6  1  0  0  0  0
  5 36  1  0  0  0  0
  6  7  1  0  0  0  0
  7  8  1  0  0  0  0
  7  9  1  0  0  0  0
  7 37  1  0  0  0  0
  8 10  1  0  0  0  0
  8 38  1  0  0  0  0
  9 11  1  0  0  0  0
  9 39  1  0  0  0  0
  9 40  1  0  0  0  0
 10 15  1  0  0  0  0
 10 20  2  0  0  0  0
 11 12  1  0  0  0  0
 11 14  1  0  0  0  0
 12 13  1  0  0  0  0
 12 21  2  0  0  0  0
 13 41  1  0  0  0  0
 14 16  2  0  0  0  0
 14 17  1  0  0  0  0
 15 23  1  0  0  0  0
 15 25  1  0  0  0  0
 15 42  1  0  0  0  0
 17 18  1  0  0  0  0
 17 24  2  0  0  0  0
 18 19  2  0  0  0  0
 18 22  1  0  0  0  0
 21 24  1  0  0  0  0
 21 43  1  0  0  0  0
 22 29  1  0  0  0  0
 23 27  1  0  0  0  0
 23 44  1  0  0  0  0
 23 45  1  0  0  0  0
 24 46  1  0  0  0  0
 25 26  1  0  0  0  0
 25 47  1  0  0  0  0
 26 28  2  0  0  0  0
 26 31  1  0  0  0  0
 27 30  1  0  0  0  0
 27 31  2  0  0  0  0
 29 48  1  0  0  0  0
 29 49  1  0  0  0  0
 29 50  1  0  0  0  0
 30 51  1  0  0  0  0
 30 52  1  0  0  0  0
 30 53  1  0  0  0  0
 31 54  1  0  0  0  0
M  END
> <rseq>
1

> <mseq>
285

> <S>
-6.233038

> <rmsd_refine>
1.439518

> <E_conf>
-53.69927

> <E_score1>
-9.059956

> <E_refine>
-30.87614

> <E_score2>
-6.233038

>  <$File>
outputs/pdb_4j58_cleaned.pdb_2024_06_17__22_47_40_V2_BS398_MIN1_/SDF/sdf_db.sdf

> <Rec_index>
1

>  <PLIF_raw>
[28,1872,125,2,1.9]

> <FP:PLIF>
29 46

>  <PLIF_ligidx>
[28,28]

$$$$
285
  MOE2022           3D

 57 59  0  0  1  0  0  0  0  0999 V2000
    2.8140   16.3060   20.8930 C   0  0  0  0  0  0  0  0  0  0  0  0
    1.6160   15.7350   21.2980 C   0  0  0  0  0  0  0  0  0  0  0  0
    2.8780   17.0540   19.7240 C   0  0  0  0  0  0  0  0  0  0  0  0
    0.4770   15.8990   20.5190 C   0  0  0  0  0  0  0  0  0  0  0  0
    0.5450   16.6300   19.3380 C   0  0  0  0  0  0  0  0  0  0  0  0
    1.7410   17.2230   18.9320 C   0  0  0  0  0  0  0  0  0  0  0  0
    1.7690   17.9940   17.6180 C   0  0  1  0  0  0  0  0  0  0  0  0
    2.9260   18.9040   17.4900 N   0  0  0  0  0  0  0  0  0  0  0  0
    1.6330   16.9890   16.4450 C   0  0  0  0  0  0  0  0  0  0  0  0
    2.8190   20.2380   17.3550 C   0  0  0  0  0  0  0  0  0  0  0  0
    1.8690   17.4470   15.0320 N   0  0  0  0  0  0  0  0  0  0  0  0
    1.1920   18.5320   14.4850 C   0  0  0  0  0  0  0  0  0  0  0  0
    0.3130   19.1750   15.2650 O   0  0  0  0  0  0  0  0  0  0  0  0
    2.7080   16.6650   14.1950 C   0  0  0  0  0  0  0  0  0  0  0  0
    4.0990   21.0980   17.2840 C   0  0  2  0  0  0  0  0  0  0  0  0
    3.3340   15.7300   14.7200 O   0  0  0  0  0  0  0  0  0  0  0  0
    2.7960   17.0020   12.7900 C   0  0  0  0  0  0  0  0  0  0  0  0
    3.4750   16.1150   11.8670 C   0  0  0  0  0  0  0  0  0  0  0  0
    3.6000   14.9070   12.0260 O   0  0  0  0  0  0  0  0  0  0  0  0
    1.7330   20.8110   17.3240 O   0  0  0  0  0  0  0  0  0  0  0  0
    1.3830   18.9220   13.1810 C   0  0  0  0  0  0  0  0  0  0  0  0
    3.9910   16.6560   10.7270 O   0  0  0  0  0  0  0  0  0  0  0  0
    2.1910   18.1550   12.3320 C   0  0  0  0  0  0  0  0  0  0  0  0
    4.5460   15.8740    9.6280 C   0  0  0  0  0  0  0  0  0  0  0  0
    5.2560   20.4710   16.4610 C   0  0  0  0  0  0  0  0  0  0  0  0
    5.9600   15.3560    9.8970 C   0  0  0  0  0  0  0  0  0  0  0  0
    4.5520   21.5910   18.6780 C   0  0  0  0  0  0  0  0  0  0  0  0
    5.6440   20.7270   19.2600 C   0  0  0  0  0  0  0  0  0  0  0  0
    6.8870   20.5460   18.4200 C   0  0  0  0  0  0  0  0  0  0  0  0
    6.6450   20.9300   16.9480 C   0  0  0  0  0  0  0  0  0  0  0  0
    5.4980   20.1410   20.2930 O   0  0  0  0  0  0  0  0  0  0  0  0
    3.6840   16.1660   21.4750 H   0  0  0  0  0  0  0  0  0  0  0  0
    1.5790   15.1780   22.1970 H   0  0  0  0  0  0  0  0  0  0  0  0
    3.7990   17.4930   19.4450 H   0  0  0  0  0  0  0  0  0  0  0  0
   -0.4420   15.4670   20.8190 H   0  0  0  0  0  0  0  0  0  0  0  0
   -0.3250   16.7320   18.7410 H   0  0  0  0  0  0  0  0  0  0  0  0
    0.8700   18.5930   17.6220 H   0  0  0  0  0  0  0  0  0  0  0  0
    3.8460   18.4960   17.5300 H   0  0  0  0  0  0  0  0  0  0  0  0
    2.2810   16.1610   16.6940 H   0  0  0  0  0  0  0  0  0  0  0  0
    0.6480   16.5460   16.4970 H   0  0  0  0  0  0  0  0  0  0  0  0
    0.3010   18.8170   16.1720 H   0  0  0  0  0  0  0  0  0  0  0  0
    3.8130   22.0120   16.7610 H   0  0  0  0  0  0  0  0  0  0  0  0
    0.8930   19.7830   12.8050 H   0  0  0  0  0  0  0  0  0  0  0  0
    2.2940   18.4510   11.3190 H   0  0  0  0  0  0  0  0  0  0  0  0
    3.8850   15.0310    9.4230 H   0  0  0  0  0  0  0  0  0  0  0  0
    4.5730   16.5100    8.7420 H   0  0  0  0  0  0  0  0  0  0  0  0
    5.2290   19.3850   16.5340 H   0  0  0  0  0  0  0  0  0  0  0  0
    5.1250   20.7420   15.4130 H   0  0  0  0  0  0  0  0  0  0  0  0
    6.3080   14.7940    9.0310 H   0  0  0  0  0  0  0  0  0  0  0  0
    6.6320   16.1930   10.0710 H   0  0  0  0  0  0  0  0  0  0  0  0
    5.9590   14.6990   10.7670 H   0  0  0  0  0  0  0  0  0  0  0  0
    4.9460   22.5930   18.5710 H   0  0  0  0  0  0  0  0  0  0  0  0
    3.7130   21.7030   19.3460 H   0  0  0  0  0  0  0  0  0  0  0  0
    7.2120   19.5170   18.4840 H   0  0  0  0  0  0  0  0  0  0  0  0
    7.7000   21.1350   18.8240 H   0  0  0  0  0  0  0  0  0  0  0  0
    7.4320   20.4880   16.3370 H   0  0  0  0  0  0  0  0  0  0  0  0
    6.7120   22.0150   16.8480 H   0  0  0  0  0  0  0  0  0  0  0  0
  1  2  2  0  0  0  0
  1  3  1  0  0  0  0
  1 32  1  0  0  0  0
  2  4  1  0  0  0  0
  2 33  1  0  0  0  0
  3  6  2  0  0  0  0
  3 34  1  0  0  0  0
  4  5  2  0  0  0  0
  4 35  1  0  0  0  0
  5  6  1  0  0  0  0
  5 36  1  0  0  0  0
  6  7  1  0  0  0  0
  7  8  1  0  0  0  0
  7  9  1  0  0  0  0
  7 37  1  0  0  0  0
  8 10  1  0  0  0  0
  8 38  1  0  0  0  0
  9 11  1  0  0  0  0
  9 39  1  0  0  0  0
  9 40  1  0  0  0  0
 10 15  1  0  0  0  0
 10 20  2  0  0  0  0
 11 12  1  0  0  0  0
 11 14  1  0  0  0  0
 12 13  1  0  0  0  0
 12 21  2  0  0  0  0
 13 41  1  0  0  0  0
 14 16  2  0  0  0  0
 14 17  1  0  0  0  0
 15 25  1  0  0  0  0
 15 27  1  0  0  0  0
 15 42  1  0  0  0  0
 17 18  1  0  0  0  0
 17 23  2  0  0  0  0
 18 19  2  0  0  0  0
 18 22  1  0  0  0  0
 21 23  1  0  0  0  0
 21 43  1  0  0  0  0
 22 24  1  0  0  0  0
 23 44  1  0  0  0  0
 24 26  1  0  0  0  0
 24 45  1  0  0  0  0
 24 46  1  0  0  0  0
 25 30  1  0  0  0  0
 25 47  1  0  0  0  0
 25 48  1  0  0  0  0
 26 49  1  0  0  0  0
 26 50  1  0  0  0  0
 26 51  1  0  0  0  0
 27 28  1  0  0  0  0
 27 52  1  0  0  0  0
 27 53  1  0  0  0  0
 28 29  1  0  0  0  0
 28 31  2  0  0  0  0
 29 30  1  0  0  0  0
 29 54  1  0  0  0  0
 29 55  1  0  0  0  0
 30 56  1  0  0  0  0
 30 57  1  0  0  0  0
M  END
> <rseq>
1

> <mseq>
286

> <S>
-7.095235

> <rmsd_refine>
0.9397185

> <E_conf>
-75.23958

> <E_score1>
-9.946758

> <E_refine>
-36.51536

> <E_score2>
-7.095235

>  <$File>
outputs/pdb_4j58_cleaned.pdb_2024_06_17__22_47_40_V2_BS398_MIN1_/SDF/sdf_db.sdf

> <Rec_index>
1

>  <PLIF_raw>
[31,1499,101,4,2.7]

> <FP:PLIF>
11 12

>  <PLIF_ligidx>
[31,31]

$$$$
286
  MOE2022           3D

 60 62  0  0  1  0  0  0  0  0999 V2000
    8.7580   21.1360   18.7060 C   0  0  0  0  0  0  0  0  0  0  0  0
    7.4780   21.4010   17.9080 C   0  0  0  0  0  0  0  0  0  0  0  0
    7.2130   22.9140   17.8910 C   0  0  0  0  0  0  0  0  0  0  0  0
    6.3160   20.6160   18.5480 C   0  0  0  0  0  0  0  0  0  0  0  0
    5.0140   20.7180   17.7560 C   0  0  0  0  0  0  0  0  0  0  0  0
    7.6790   20.9800   16.5760 O   0  0  0  0  0  0  0  0  0  0  0  0
    4.8120   19.7740   16.8290 N   0  0  0  0  0  0  0  0  0  0  0  0
    4.2430   21.6490   17.9740 O   0  0  0  0  0  0  0  0  0  0  0  0
    3.6510   19.6650   15.9320 C   0  0  2  0  0  0  0  0  0  0  0  0
    2.2980   20.0080   16.5510 C   0  0  0  0  0  0  0  0  0  0  0  0
    3.4990   18.2470   15.4370 C   0  0  0  0  0  0  0  0  0  0  0  0
    1.6630   19.0090   17.2130 N   0  0  0  0  0  0  0  0  0  0  0  0
    1.7450   21.0780   16.2950 O   0  0  0  0  0  0  0  0  0  0  0  0
    0.2040   18.9740   17.2690 C   0  0  0  0  0  0  0  0  0  0  0  0
   -0.4330   18.3950   16.0000 C   0  0  0  0  0  0  0  0  0  0  0  0
    3.2000   17.2830   16.3970 N   0  0  0  0  0  0  0  0  0  0  0  0
    2.3530   17.7410   17.5050 C   0  0  1  0  0  0  0  0  0  0  0  0
    2.8390   16.0570   15.6620 C   0  0  0  0  0  0  0  0  0  0  0  0
    2.9540   16.4090   14.1960 C   0  0  0  0  0  0  0  0  0  0  0  0
    3.1350   17.8800   18.6880 O   0  0  0  0  0  0  0  0  0  0  0  0
    2.6160   15.5960   13.1750 C   0  0  0  0  0  0  0  0  0  0  0  0
    3.4010   17.7720   14.1830 C   0  0  0  0  0  0  0  0  0  0  0  0
    2.6430   16.0000   11.7160 C   0  0  0  0  0  0  0  0  0  0  0  0
    3.8470   15.4530   10.9720 C   0  0  0  0  0  0  0  0  0  0  0  0
    4.1500   14.0980   11.0940 C   0  0  0  0  0  0  0  0  0  0  0  0
    5.2560   13.5720   10.4330 C   0  0  0  0  0  0  0  0  0  0  0  0
    4.6620   16.2480   10.1530 C   0  0  0  0  0  0  0  0  0  0  0  0
    5.5710   12.2540   10.5960 O   0  0  0  0  0  0  0  0  0  0  0  0
    6.0510   14.3630    9.6130 C   0  0  0  0  0  0  0  0  0  0  0  0
    4.4100   17.5850    9.9990 O   0  0  0  0  0  0  0  0  0  0  0  0
    5.7520   15.7110    9.4690 C   0  0  0  0  0  0  0  0  0  0  0  0
    8.9870   20.0690   18.7100 H   0  0  0  0  0  0  0  0  0  0  0  0
    9.5940   21.6790   18.2670 H   0  0  0  0  0  0  0  0  0  0  0  0
    8.6240   21.4780   19.7300 H   0  0  0  0  0  0  0  0  0  0  0  0
    6.3510   23.1450   17.2650 H   0  0  0  0  0  0  0  0  0  0  0  0
    7.0200   23.2680   18.9040 H   0  0  0  0  0  0  0  0  0  0  0  0
    8.0800   23.4390   17.4910 H   0  0  0  0  0  0  0  0  0  0  0  0
    6.5960   19.5650   18.6320 H   0  0  0  0  0  0  0  0  0  0  0  0
    6.1400   20.9880   19.5580 H   0  0  0  0  0  0  0  0  0  0  0  0
    6.9150   21.2620   16.0690 H   0  0  0  0  0  0  0  0  0  0  0  0
    5.5120   19.0510   16.7360 H   0  0  0  0  0  0  0  0  0  0  0  0
    3.8180   20.3170   15.0850 H   0  0  0  0  0  0  0  0  0  0  0  0
   -0.1020   18.3810   18.1170 H   0  0  0  0  0  0  0  0  0  0  0  0
   -0.1900   19.9670   17.4400 H   0  0  0  0  0  0  0  0  0  0  0  0
   -0.1020   17.3700   15.8330 H   0  0  0  0  0  0  0  0  0  0  0  0
   -1.5190   18.3950   16.0920 H   0  0  0  0  0  0  0  0  0  0  0  0
   -0.1630   18.9930   15.1300 H   0  0  0  0  0  0  0  0  0  0  0  0
    1.6150   16.9780   17.7180 H   0  0  0  0  0  0  0  0  0  0  0  0
    3.5210   15.2620   15.9250 H   0  0  0  0  0  0  0  0  0  0  0  0
    1.8340   15.7370   15.9020 H   0  0  0  0  0  0  0  0  0  0  0  0
    2.6920   18.5000   19.2900 H   0  0  0  0  0  0  0  0  0  0  0  0
    2.2890   14.6050   13.3640 H   0  0  0  0  0  0  0  0  0  0  0  0
    3.5480   18.3530   13.3090 H   0  0  0  0  0  0  0  0  0  0  0  0
    1.7450   15.6310   11.2390 H   0  0  0  0  0  0  0  0  0  0  0  0
    2.5720   17.0740   11.6330 H   0  0  0  0  0  0  0  0  0  0  0  0
    3.5420   13.4660   11.6860 H   0  0  0  0  0  0  0  0  0  0  0  0
    5.0430   11.8720   11.3250 H   0  0  0  0  0  0  0  0  0  0  0  0
    6.8700   13.9360    9.1040 H   0  0  0  0  0  0  0  0  0  0  0  0
    3.5820   17.8340   10.4530 H   0  0  0  0  0  0  0  0  0  0  0  0
    6.3450   16.3230    8.8410 H   0  0  0  0  0  0  0  0  0  0  0  0
  1  2  1  0  0  0  0
  1 32  1  0  0  0  0
  1 33  1  0  0  0  0
  1 34  1  0  0  0  0
  2  3  1  0  0  0  0
  2  4  1  0  0  0  0
  2  6  1  0  0  0  0
  3 35  1  0  0  0  0
  3 36  1  0  0  0  0
  3 37  1  0  0  0  0
  4  5  1  0  0  0  0
  4 38  1  0  0  0  0
  4 39  1  0  0  0  0
  5  7  1  0  0  0  0
  5  8  2  0  0  0  0
  6 40  1  0  0  0  0
  7  9  1  0  0  0  0
  7 41  1  0  0  0  0
  9 10  1  0  0  0  0
  9 11  1  0  0  0  0
  9 42  1  0  0  0  0
 10 12  1  0  0  0  0
 10 13  2  0  0  0  0
 11 16  1  0  0  0  0
 11 22  2  0  0  0  0
 12 14  1  0  0  0  0
 12 17  1  0  0  0  0
 14 15  1  0  0  0  0
 14 43  1  0  0  0  0
 14 44  1  0  0  0  0
 15 45  1  0  0  0  0
 15 46  1  0  0  0  0
 15 47  1  0  0  0  0
 16 17  1  0  0  0  0
 16 18  1  0  0  0  0
 17 20  1  0  0  0  0
 17 48  1  0  0  0  0
 18 19  1  0  0  0  0
 18 49  1  0  0  0  0
 18 50  1  0  0  0  0
 19 21  2  0  0  0  0
 19 22  1  0  0  0  0
 20 51  1  0  0  0  0
 21 23  1  0  0  0  0
 21 52  1  0  0  0  0
 22 53  1  0  0  0  0
 23 24  1  0  0  0  0
 23 54  1  0  0  0  0
 23 55  1  0  0  0  0
 24 25  2  0  0  0  0
 24 27  1  0  0  0  0
 25 26  1  0  0  0  0
 25 56  1  0  0  0  0
 26 28  1  0  0  0  0
 26 29  2  0  0  0  0
 27 30  1  0  0  0  0
 27 31  2  0  0  0  0
 28 57  1  0  0  0  0
 29 31  1  0  0  0  0
 29 58  1  0  0  0  0
 30 59  1  0  0  0  0
 31 60  1  0  0  0  0
M  END
> <rseq>
1

> <mseq>
287

> <S>
-7.042845

> <rmsd_refine>
1.193521

> <E_conf>
-176.3195

> <E_score1>
-10.53605

> <E_refine>
-42.22248

> <E_score2>
-7.042845

>  <$File>
outputs/pdb_4j58_cleaned.pdb_2024_06_17__22_47_40_V2_BS398_MIN1_/SDF/sdf_db.sdf

> <Rec_index>
1

>  <PLIF_raw>
[[7,20,28],[953,1504,1056],[62,101,70],[1,3,3],[1.7,0.8,1.5]]

> <FP:PLIF>
28 35 3 4 8

>  <PLIF_ligidx>
[7,7,28,28,20]

$$$$
287
  MOE2022           3D

 54 56  0  0  1  0  0  0  0  0999 V2000
    6.5200   20.0710   19.1950 C   0  0  0  0  0  0  0  0  0  0  0  0
    7.5680   20.8820   18.8360 C   0  0  0  0  0  0  0  0  0  0  0  0
    5.4410   19.8640   18.3090 C   0  0  0  0  0  0  0  0  0  0  0  0
    4.3580   19.0220   18.6470 C   0  0  0  0  0  0  0  0  0  0  0  0
    3.3370   18.8000   17.7500 C   0  0  0  0  0  0  0  0  0  0  0  0
    7.5750   21.5310   17.5890 C   0  0  0  0  0  0  0  0  0  0  0  0
    8.7360   22.4390   17.2600 C   0  0  0  0  0  0  0  0  0  0  0  0
    6.5210   21.3630   16.6960 C   0  0  0  0  0  0  0  0  0  0  0  0
    3.4160   19.4870   16.4910 C   0  0  0  0  0  0  0  0  0  0  0  0
    6.4970   22.0720   15.4190 C   0  0  0  0  0  0  0  0  0  0  0  0
    2.2430   17.8860   18.1110 C   0  0  0  0  0  0  0  0  0  0  0  0
    7.2950   21.7290   14.5000 O   0  0  0  0  0  0  0  0  0  0  0  0
    5.6900   23.0230   15.2530 O   0  5  0  0  0  0  0  0  0  0  0  0
    2.4440   17.0260   19.0140 O   0  5  0  0  0  0  0  0  0  0  0  0
    1.1180   17.9430   17.5420 O   0  0  0  0  0  0  0  0  0  0  0  0
    2.4150   19.3230   15.5490 N   0  0  0  0  0  0  0  0  0  0  0  0
    5.4440   20.4980   17.0450 C   0  0  0  0  0  0  0  0  0  0  0  0
    2.1010   20.3400   14.5380 C   0  0  0  0  0  0  0  0  0  0  0  0
    4.4210   20.2730   16.1670 N   0  0  0  0  0  0  0  0  0  0  0  0
    1.7740   19.7380   13.1670 C   0  0  1  0  0  0  0  0  0  0  0  0
    2.9520   18.9020   12.6380 C   0  0  0  0  0  0  0  0  0  0  0  0
    0.5830   18.7680   13.2040 C   0  0  0  0  0  0  0  0  0  0  0  0
    1.2010   17.3730   13.1590 C   0  0  0  0  0  0  0  0  0  0  0  0
    2.5170   17.4750   12.4660 N   0  3  1  0  0  0  0  0  0  0  0  0
    2.4520   17.0440   11.0200 C   0  0  0  0  0  0  0  0  0  0  0  0
    3.7820   16.7910   10.3350 C   0  0  0  0  0  0  0  0  0  0  0  0
    4.1130   15.3940    9.8640 C   0  0  0  0  0  0  0  0  0  0  0  0
    4.3460   14.4420   11.0140 C   0  0  0  0  0  0  0  0  0  0  0  0
    3.6240   14.4470   12.0060 O   0  0  0  0  0  0  0  0  0  0  0  0
    5.3640   13.5900   10.9120 N   0  0  0  0  0  0  0  0  0  0  0  0
    4.6150   17.6510   10.2890 O   0  0  0  0  0  0  0  0  0  0  0  0
    6.5210   19.5960   20.1390 H   0  0  0  0  0  0  0  0  0  0  0  0
    8.3770   21.0250   19.5060 H   0  0  0  0  0  0  0  0  0  0  0  0
    4.3440   18.5590   19.5980 H   0  0  0  0  0  0  0  0  0  0  0  0
    9.1940   22.1540   16.3130 H   0  0  0  0  0  0  0  0  0  0  0  0
    8.3830   23.4660   17.1840 H   0  0  0  0  0  0  0  0  0  0  0  0
    9.5030   22.3930   18.0310 H   0  0  0  0  0  0  0  0  0  0  0  0
    1.5960   18.7920   15.8940 H   0  0  0  0  0  0  0  0  0  0  0  0
    1.2440   20.9210   14.8810 H   0  0  0  0  0  0  0  0  0  0  0  0
    2.9290   21.0370   14.4030 H   0  0  0  0  0  0  0  0  0  0  0  0
    1.5790   20.5460   12.4600 H   0  0  0  0  0  0  0  0  0  0  0  0
    3.3180   19.3370   11.7180 H   0  0  0  0  0  0  0  0  0  0  0  0
    3.7830   18.9890   13.3270 H   0  0  0  0  0  0  0  0  0  0  0  0
   -0.0380   18.9010   14.0910 H   0  0  0  0  0  0  0  0  0  0  0  0
   -0.0210   18.9090   12.3070 H   0  0  0  0  0  0  0  0  0  0  0  0
    1.3280   17.0300   14.1780 H   0  0  0  0  0  0  0  0  0  0  0  0
    0.5200   16.6650   12.7060 H   0  0  0  0  0  0  0  0  0  0  0  0
    3.1680   16.8690   12.9470 H   0  0  0  0  0  0  0  0  0  0  0  0
    1.8620   16.1430   10.9210 H   0  0  0  0  0  0  0  0  0  0  0  0
    1.9040   17.7660   10.4280 H   0  0  0  0  0  0  0  0  0  0  0  0
    3.2980   15.0140    9.2630 H   0  0  0  0  0  0  0  0  0  0  0  0
    4.9740   15.4150    9.2080 H   0  0  0  0  0  0  0  0  0  0  0  0
    5.9530   13.5820   10.0940 H   0  0  0  0  0  0  0  0  0  0  0  0
    5.5270   12.9330   11.6650 H   0  0  0  0  0  0  0  0  0  0  0  0
  1  2  1  0  0  0  0
  1  3  2  0  0  0  0
  1 32  1  0  0  0  0
  2  6  2  0  0  0  0
  2 33  1  0  0  0  0
  3  4  1  0  0  0  0
  3 17  1  0  0  0  0
  4  5  2  0  0  0  0
  4 34  1  0  0  0  0
  5  9  1  0  0  0  0
  5 11  1  0  0  0  0
  6  7  1  0  0  0  0
  6  8  1  0  0  0  0
  7 35  1  0  0  0  0
  7 36  1  0  0  0  0
  7 37  1  0  0  0  0
  8 10  1  0  0  0  0
  8 17  2  0  0  0  0
  9 16  1  0  0  0  0
  9 19  2  0  0  0  0
 10 12  2  0  0  0  0
 10 13  1  0  0  0  0
 11 14  1  0  0  0  0
 11 15  2  0  0  0  0
 16 18  1  0  0  0  0
 16 38  1  0  0  0  0
 17 19  1  0  0  0  0
 18 20  1  0  0  0  0
 18 39  1  0  0  0  0
 18 40  1  0  0  0  0
 20 21  1  0  0  0  0
 20 22  1  0  0  0  0
 20 41  1  0  0  0  0
 21 24  1  0  0  0  0
 21 42  1  0  0  0  0
 21 43  1  0  0  0  0
 22 23  1  0  0  0  0
 22 44  1  0  0  0  0
 22 45  1  0  0  0  0
 23 24  1  0  0  0  0
 23 46  1  0  0  0  0
 23 47  1  0  0  0  0
 24 25  1  0  0  0  0
 24 48  1  0  0  0  0
 25 26  1  0  0  0  0
 25 49  1  0  0  0  0
 25 50  1  0  0  0  0
 26 27  1  0  0  0  0
 26 31  2  0  0  0  0
 27 28  1  0  0  0  0
 27 51  1  0  0  0  0
 27 52  1  0  0  0  0
 28 29  2  0  0  0  0
 28 30  1  0  0  0  0
 30 53  1  0  0  0  0
 30 54  1  0  0  0  0
M  CHG  1  13  -1
M  CHG  1  14  -1
M  CHG  1  24   1
M  END
> <rseq>
1

> <mseq>
288

> <S>
-5.935746

> <rmsd_refine>
1.0926

> <E_conf>
-268.4088

> <E_score1>
-10.42794

> <E_refine>
-34.78947

> <E_score2>
-5.935746

>  <$File>
outputs/pdb_4j58_cleaned.pdb_2024_06_17__22_47_40_V2_BS398_MIN1_/SDF/sdf_db.sdf

> <Rec_index>
1

>  <PLIF_raw>
[[30,12,12,12,2,2,2,2,2,2],[1056,826,826,829,1651,1655,1659,1657,1653,1650],[70,54,54,54,112,112,112,112,112,112],[3,2,7,7,10,10,10,10,10,10],[2.1,5.3,5.361259258,2.073000799,0.5,0.5,0.5,0.5,0.5,0.5]]

> <FP:PLIF>
6 19 1 16 3 4 15

>  <PLIF_ligidx>
[12,12,[12,12],12,30,30,[2,2,2,2,2,2]]

$$$$
264
  MOE2022           3D

 58 60  0  0  1  0  0  0  0  0999 V2000
    7.2990   21.0470   19.3640 C   0  0  0  0  0  0  0  0  0  0  0  0
    6.5230   19.8990   19.2560 C   0  0  0  0  0  0  0  0  0  0  0  0
    5.1840   20.0040   18.8800 C   0  0  0  0  0  0  0  0  0  0  0  0
    4.4540   18.8290   18.7630 O   0  0  0  0  0  0  0  0  0  0  0  0
    3.2260   18.6550   17.9750 C   0  0  1  0  0  0  0  0  0  0  0  0
    4.6170   21.2560   18.6210 C   0  0  0  0  0  0  0  0  0  0  0  0
    6.7410   22.2950   19.1030 C   0  0  0  0  0  0  0  0  0  0  0  0
    5.4020   22.3990   18.7340 C   0  0  0  0  0  0  0  0  0  0  0  0
    3.4960   18.6580   16.4730 C   0  0  0  0  0  0  0  0  0  0  0  0
    4.4160   19.3440   16.0270 O   0  0  0  0  0  0  0  0  0  0  0  0
    2.4460   17.3990   18.4090 C   0  0  2  0  0  0  0  0  0  0  0  0
    2.6940   17.9420   15.6420 N   0  0  0  0  0  0  0  0  0  0  0  0
    1.1490   17.2840   17.5770 C   0  0  2  0  0  0  0  0  0  0  0  0
    1.6420   16.9880   16.1300 C   0  0  1  0  0  0  0  0  0  0  0  0
    2.2160   17.3960   19.8030 O   0  0  0  0  0  0  0  0  0  0  0  0
    2.9950   17.9180   14.1990 C   0  0  0  0  0  0  0  0  0  0  0  0
    0.3700   18.5490   17.5680 N   0  0  0  0  0  0  0  0  0  0  0  0
    0.2640   16.1610   18.1710 C   0  0  0  0  0  0  0  0  0  0  0  0
   -0.9650   15.9700   17.4970 O   0  0  0  0  0  0  0  0  0  0  0  0
    0.5230   16.9350   15.1820 O   0  0  0  0  0  0  0  0  0  0  0  0
    0.2230   15.6350   14.5780 C   0  0  0  0  0  0  0  0  0  0  0  0
    1.3530   15.1280   13.7120 C   0  0  0  0  0  0  0  0  0  0  0  0
    2.1950   14.3650   14.1400 O   0  0  0  0  0  0  0  0  0  0  0  0
    1.4540   15.6550   12.4450 N   0  0  0  0  0  0  0  0  0  0  0  0
    2.5720   15.4830   11.5910 C   0  0  0  0  0  0  0  0  0  0  0  0
    3.0650   16.6070   10.9270 C   0  0  0  0  0  0  0  0  0  0  0  0
    3.1820   14.2360   11.4340 C   0  0  0  0  0  0  0  0  0  0  0  0
    4.3210   14.1310   10.6480 C   0  0  0  0  0  0  0  0  0  0  0  0
    4.8400   15.2530   10.0030 C   0  0  0  0  0  0  0  0  0  0  0  0
    6.0860   15.1150    9.1640 C   0  0  0  0  0  0  0  0  0  0  0  0
    4.2030   16.4880   10.1380 C   0  0  0  0  0  0  0  0  0  0  0  0
    8.3200   20.9730   19.6360 H   0  0  0  0  0  0  0  0  0  0  0  0
    6.9510   18.9510   19.4470 H   0  0  0  0  0  0  0  0  0  0  0  0
    2.5970   19.5050   18.1890 H   0  0  0  0  0  0  0  0  0  0  0  0
    3.6020   21.3480   18.3390 H   0  0  0  0  0  0  0  0  0  0  0  0
    7.3380   23.1670   19.1800 H   0  0  0  0  0  0  0  0  0  0  0  0
    4.9820   23.3500   18.5340 H   0  0  0  0  0  0  0  0  0  0  0  0
    3.0690   16.5290   18.1940 H   0  0  0  0  0  0  0  0  0  0  0  0
    2.0880   16.0020   16.1440 H   0  0  0  0  0  0  0  0  0  0  0  0
    1.8690   18.2600   20.0440 H   0  0  0  0  0  0  0  0  0  0  0  0
    3.6600   18.7100   13.8840 H   0  0  0  0  0  0  0  0  0  0  0  0
    3.4640   16.9850   13.9190 H   0  0  0  0  0  0  0  0  0  0  0  0
    2.1010   18.0380   13.6050 H   0  0  0  0  0  0  0  0  0  0  0  0
    0.9330   19.2910   17.1790 H   0  0  0  0  0  0  0  0  0  0  0  0
   -0.4390   18.4240   16.9740 H   0  0  0  0  0  0  0  0  0  0  0  0
    0.8160   15.2310   18.1920 H   0  0  0  0  0  0  0  0  0  0  0  0
    0.0190   16.4140   19.2030 H   0  0  0  0  0  0  0  0  0  0  0  0
   -1.4770   16.7800   17.5650 H   0  0  0  0  0  0  0  0  0  0  0  0
    0.0090   14.9250   15.3640 H   0  0  0  0  0  0  0  0  0  0  0  0
   -0.6800   15.7480   13.9920 H   0  0  0  0  0  0  0  0  0  0  0  0
    0.7420   16.3480   12.1670 H   0  0  0  0  0  0  0  0  0  0  0  0
    2.5850   17.5450   11.0330 H   0  0  0  0  0  0  0  0  0  0  0  0
    2.7890   13.3760   11.9110 H   0  0  0  0  0  0  0  0  0  0  0  0
    4.7980   13.1910   10.5400 H   0  0  0  0  0  0  0  0  0  0  0  0
    6.3530   16.0580    8.6870 H   0  0  0  0  0  0  0  0  0  0  0  0
    6.9160   14.7910    9.7920 H   0  0  0  0  0  0  0  0  0  0  0  0
    5.9310   14.3690    8.3860 H   0  0  0  0  0  0  0  0  0  0  0  0
    4.5870   17.3410    9.6400 H   0  0  0  0  0  0  0  0  0  0  0  0
  1  2  1  0  0  0  0
  1  7  2  0  0  0  0
  1 32  1  0  0  0  0
  2  3  2  0  0  0  0
  2 33  1  0  0  0  0
  3  4  1  0  0  0  0
  3  6  1  0  0  0  0
  4  5  1  0  0  0  0
  5  9  1  0  0  0  0
  5 11  1  0  0  0  0
  5 34  1  0  0  0  0
  6  8  2  0  0  0  0
  6 35  1  0  0  0  0
  7  8  1  0  0  0  0
  7 36  1  0  0  0  0
  8 37  1  0  0  0  0
  9 10  2  0  0  0  0
  9 12  1  0  0  0  0
 11 13  1  0  0  0  0
 11 15  1  0  0  0  0
 11 38  1  0  0  0  0
 12 14  1  0  0  0  0
 12 16  1  0  0  0  0
 13 14  1  0  0  0  0
 13 17  1  0  0  0  0
 13 18  1  0  0  0  0
 14 20  1  0  0  0  0
 14 39  1  0  0  0  0
 15 40  1  0  0  0  0
 16 41  1  0  0  0  0
 16 42  1  0  0  0  0
 16 43  1  0  0  0  0
 17 44  1  0  0  0  0
 17 45  1  0  0  0  0
 18 19  1  0  0  0  0
 18 46  1  0  0  0  0
 18 47  1  0  0  0  0
 19 48  1  0  0  0  0
 20 21  1  0  0  0  0
 21 22  1  0  0  0  0
 21 49  1  0  0  0  0
 21 50  1  0  0  0  0
 22 23  2  0  0  0  0
 22 24  1  0  0  0  0
 24 25  1  0  0  0  0
 24 51  1  0  0  0  0
 25 26  2  0  0  0  0
 25 27  1  0  0  0  0
 26 31  1  0  0  0  0
 26 52  1  0  0  0  0
 27 28  2  0  0  0  0
 27 53  1  0  0  0  0
 28 29  1  0  0  0  0
 28 54  1  0  0  0  0
 29 30  1  0  0  0  0
 29 31  2  0  0  0  0
 30 55  1  0  0  0  0
 30 56  1  0  0  0  0
 30 57  1  0  0  0  0
 31 58  1  0  0  0  0
M  END
> <rseq>
1

> <mseq>
265

> <S>
-6.717383

> <rmsd_refine>
1.156855

> <E_conf>
84.10902

> <E_score1>
-11.24104

> <E_refine>
-36.74361

> <E_score2>
-6.717383

>  <$File>
outputs/pdb_4j58_cleaned.pdb_2024_06_17__22_47_40_V2_BS398_MIN1_/SDF/sdf_db.sdf

> <Rec_index>
1

>  <PLIF_raw>
[18,1071,71,3,0.6]

> <FP:PLIF>
7

>  <PLIF_ligidx>
18

$$$$
265
  MOE2022           3D

 54 56  0  0  1  0  0  0  0  0999 V2000
    3.5320   17.5290   19.6000 O   0  0  0  0  0  0  0  0  0  0  0  0
    2.5170   17.1930   18.9840 C   0  0  0  0  0  0  0  0  0  0  0  0
    1.4380   16.4400   19.5630 C   0  0  0  0  0  0  0  0  0  0  0  0
    2.4080   17.5320   17.6300 N   0  0  0  0  0  0  0  0  0  0  0  0
    0.4050   16.0390   18.7700 C   0  0  0  0  0  0  0  0  0  0  0  0
    1.3960   16.9290   16.8500 C   0  0  0  0  0  0  0  0  0  0  0  0
    0.4240   16.2770   17.4180 N   0  0  0  0  0  0  0  0  0  0  0  0
    1.5050   16.9920   15.4020 C   0  0  0  0  0  0  0  0  0  0  0  0
    3.3910   18.4760   16.9820 C   0  0  0  0  0  0  0  0  0  0  0  0
    1.4850   16.0920   21.0430 C   0  0  0  0  0  0  0  0  0  0  0  0
   -0.7850   15.2510   19.2810 C   0  0  0  0  0  0  0  0  0  0  0  0
    3.6050   19.8610   17.6330 C   0  0  1  0  0  0  0  0  0  0  0  0
    4.8340   19.9950   18.5470 C   0  0  0  0  0  0  0  0  0  0  0  0
    0.5670   17.6910   14.6260 C   0  0  0  0  0  0  0  0  0  0  0  0
    3.9440   20.9580   16.6110 C   0  0  0  0  0  0  0  0  0  0  0  0
    0.7250   17.7940   13.2480 C   0  0  0  0  0  0  0  0  0  0  0  0
    1.8300   17.1980   12.6330 C   0  0  0  0  0  0  0  0  0  0  0  0
    2.0050   17.3540   11.2830 O   0  0  0  0  0  0  0  0  0  0  0  0
    2.5740   16.3580   14.7430 C   0  0  0  0  0  0  0  0  0  0  0  0
    3.4700   15.6170   15.4520 O   0  0  0  0  0  0  0  0  0  0  0  0
    4.7230   21.9790   17.2680 O   0  0  0  0  0  0  0  0  0  0  0  0
    3.1970   18.0430   10.8110 C   0  0  0  0  0  0  0  0  0  0  0  0
    2.7530   16.4630   13.3710 C   0  0  0  0  0  0  0  0  0  0  0  0
    5.2380   21.4430   18.3710 C   0  0  0  0  0  0  0  0  0  0  0  0
    4.0840   17.2060    9.9140 C   0  0  0  0  0  0  0  0  0  0  0  0
    5.9100   22.0820   19.1780 O   0  0  0  0  0  0  0  0  0  0  0  0
    4.4140   15.9370   10.3720 N   0  0  0  0  0  0  0  0  0  0  0  0
    4.4990   17.6230    8.8530 O   0  0  0  0  0  0  0  0  0  0  0  0
    5.3850   15.0940    9.8560 C   0  0  0  0  0  0  0  0  0  0  0  0
    6.1520   15.4600    8.9910 O   0  0  0  0  0  0  0  0  0  0  0  0
    5.4450   13.7130   10.4600 C   0  0  0  0  0  0  0  0  0  0  0  0
    4.3430   17.9900   16.8390 H   0  0  0  0  0  0  0  0  0  0  0  0
    3.0780   18.6920   15.9720 H   0  0  0  0  0  0  0  0  0  0  0  0
    0.7110   16.6130   21.5890 H   0  0  0  0  0  0  0  0  0  0  0  0
    1.3460   15.0320   21.1930 H   0  0  0  0  0  0  0  0  0  0  0  0
    2.4320   16.3400   21.5020 H   0  0  0  0  0  0  0  0  0  0  0  0
   -1.0870   15.5570   20.2730 H   0  0  0  0  0  0  0  0  0  0  0  0
   -1.6460   15.3780   18.6390 H   0  0  0  0  0  0  0  0  0  0  0  0
   -0.5610   14.1940   19.3100 H   0  0  0  0  0  0  0  0  0  0  0  0
    2.6950   20.1600   18.1500 H   0  0  0  0  0  0  0  0  0  0  0  0
    4.6030   19.7890   19.5890 H   0  0  0  0  0  0  0  0  0  0  0  0
    5.6460   19.3570   18.1980 H   0  0  0  0  0  0  0  0  0  0  0  0
   -0.2640   18.1510   15.0960 H   0  0  0  0  0  0  0  0  0  0  0  0
    4.5430   20.5390   15.8020 H   0  0  0  0  0  0  0  0  0  0  0  0
    3.0300   21.3910   16.2010 H   0  0  0  0  0  0  0  0  0  0  0  0
    0.0190   18.3300   12.6660 H   0  0  0  0  0  0  0  0  0  0  0  0
    3.1420   15.4610   16.3610 H   0  0  0  0  0  0  0  0  0  0  0  0
    2.8900   18.9410   10.2900 H   0  0  0  0  0  0  0  0  0  0  0  0
    3.7700   18.3760   11.6660 H   0  0  0  0  0  0  0  0  0  0  0  0
    3.5700   15.9850   12.9040 H   0  0  0  0  0  0  0  0  0  0  0  0
    3.8780   15.5850   11.1800 H   0  0  0  0  0  0  0  0  0  0  0  0
    6.3140   13.1660   10.1210 H   0  0  0  0  0  0  0  0  0  0  0  0
    5.4790   13.7560   11.5390 H   0  0  0  0  0  0  0  0  0  0  0  0
    4.5670   13.1390   10.2000 H   0  0  0  0  0  0  0  0  0  0  0  0
  1  2  2  0  0  0  0
  2  3  1  0  0  0  0
  2  4  1  0  0  0  0
  3  5  2  0  0  0  0
  3 10  1  0  0  0  0
  4  6  1  0  0  0  0
  4  9  1  0  0  0  0
  5  7  1  0  0  0  0
  5 11  1  0  0  0  0
  6  7  2  0  0  0  0
  6  8  1  0  0  0  0
  8 14  1  0  0  0  0
  8 19  2  0  0  0  0
  9 12  1  0  0  0  0
  9 32  1  0  0  0  0
  9 33  1  0  0  0  0
 10 34  1  0  0  0  0
 10 35  1  0  0  0  0
 10 36  1  0  0  0  0
 11 37  1  0  0  0  0
 11 38  1  0  0  0  0
 11 39  1  0  0  0  0
 12 13  1  0  0  0  0
 12 15  1  0  0  0  0
 12 40  1  0  0  0  0
 13 24  1  0  0  0  0
 13 41  1  0  0  0  0
 13 42  1  0  0  0  0
 14 16  2  0  0  0  0
 14 43  1  0  0  0  0
 15 21  1  0  0  0  0
 15 44  1  0  0  0  0
 15 45  1  0  0  0  0
 16 17  1  0  0  0  0
 16 46  1  0  0  0  0
 17 18  1  0  0  0  0
 17 23  2  0  0  0  0
 18 22  1  0  0  0  0
 19 20  1  0  0  0  0
 19 23  1  0  0  0  0
 20 47  1  0  0  0  0
 21 24  1  0  0  0  0
 22 25  1  0  0  0  0
 22 48  1  0  0  0  0
 22 49  1  0  0  0  0
 23 50  1  0  0  0  0
 24 26  2  0  0  0  0
 25 27  1  0  0  0  0
 25 28  2  0  0  0  0
 27 29  1  0  0  0  0
 27 51  1  0  0  0  0
 29 30  2  0  0  0  0
 29 31  1  0  0  0  0
 31 52  1  0  0  0  0
 31 53  1  0  0  0  0
 31 54  1  0  0  0  0
M  END
> <rseq>
1

> <mseq>
266

> <S>
-6.635822

> <rmsd_refine>
0.7137116

> <E_conf>
-118.4795

> <E_score1>
-11.91399

> <E_refine>
-33.94938

> <E_score2>
-6.635822

>  <$File>
outputs/pdb_4j58_cleaned.pdb_2024_06_17__22_47_40_V2_BS398_MIN1_/SDF/sdf_db.sdf

> <Rec_index>
1

>  <PLIF_raw>
[[2,4,6,7,5,3],[954,954,954,954,954,954],[62,62,62,62,62,62],[10,10,10,10,10,10],[1.5,1.5,1.5,1.5,1.5,1.5]]

> <FP:PLIF>
21 30

>  <PLIF_ligidx>
[[2,4,6,7,5,3],[2,4,6,7,5,3]]

$$$$
266
  MOE2022           3D

 47 48  0  0  0  0  0  0  0  0999 V2000
    4.7480   14.4440   10.7870 C   0  0  0  0  0  0  0  0  0  0  0  0
    3.4550   14.2440   11.2540 C   0  0  0  0  0  0  0  0  0  0  0  0
    2.4930   15.2490   11.1000 C   0  0  0  0  0  0  0  0  0  0  0  0
    5.6750   13.4500   10.9590 O   0  0  0  0  0  0  0  0  0  0  0  0
    2.8500   16.4470   10.4550 C   0  0  0  0  0  0  0  0  0  0  0  0
    1.1400   15.0360   11.6000 C   0  0  0  0  0  0  0  0  0  0  0  0
    0.6230   15.8740   12.5480 N   0  0  0  0  0  0  0  0  0  0  0  0
    0.4200   14.1110   11.2200 O   0  0  0  0  0  0  0  0  0  0  0  0
    5.0950   15.6460   10.1610 C   0  0  0  0  0  0  0  0  0  0  0  0
    1.3730   16.9090   13.2190 C   0  0  0  0  0  0  0  0  0  0  0  0
    2.1840   16.5370   14.2980 C   0  0  0  0  0  0  0  0  0  0  0  0
    1.2610   18.2280   12.7570 C   0  0  0  0  0  0  0  0  0  0  0  0
    2.3890   15.3570   14.6930 O   0  5  0  0  0  0  0  0  0  0  0  0
    0.4800   18.6170   11.8430 O   0  0  0  0  0  0  0  0  0  0  0  0
    2.1000   19.1990   13.3560 N   0  0  0  0  0  0  0  0  0  0  0  0
    6.3650   15.8630    9.7120 O   0  0  0  0  0  0  0  0  0  0  0  0
    2.8270   17.5860   14.9960 N   0  0  0  0  0  0  0  0  0  0  0  0
    2.3130   20.5190   12.7100 C   0  0  0  0  0  0  0  0  0  0  0  0
    4.1460   16.6500    9.9940 C   0  0  0  0  0  0  0  0  0  0  0  0
    2.8280   18.9060   14.5160 C   0  0  0  0  0  0  0  0  0  0  0  0
    3.6340   20.6320   11.9740 C   0  0  0  0  0  0  0  0  0  0  0  0
    3.4620   19.7930   15.1020 O   0  0  0  0  0  0  0  0  0  0  0  0
    3.5540   17.3100   16.2450 C   0  0  0  0  0  0  0  0  0  0  0  0
    4.5310   21.3380   12.4860 O   0  0  0  0  0  0  0  0  0  0  0  0
    2.8030   17.6690   17.5460 C   0  0  0  0  0  0  0  0  0  0  0  0
    3.7680   19.9900   10.9080 O   0  5  0  0  0  0  0  0  0  0  0  0
    2.1280   16.4700   18.2330 C   0  0  0  0  0  0  0  0  0  0  0  0
    1.6950   16.8200   19.6690 C   0  0  0  0  0  0  0  0  0  0  0  0
    1.1880   15.6250   20.4820 C   0  0  0  0  0  0  0  0  0  0  0  0
    0.1570   15.0380   20.0880 O   0  0  0  0  0  0  0  0  0  0  0  0
    1.8060   15.3370   21.5320 O   0  5  0  0  0  0  0  0  0  0  0  0
    3.1920   13.3350   11.7300 H   0  0  0  0  0  0  0  0  0  0  0  0
    5.3160   12.7590   11.5510 H   0  0  0  0  0  0  0  0  0  0  0  0
    2.1260   17.2070   10.3160 H   0  0  0  0  0  0  0  0  0  0  0  0
   -0.3330   15.6650   12.8670 H   0  0  0  0  0  0  0  0  0  0  0  0
    6.4300   16.7530    9.3080 H   0  0  0  0  0  0  0  0  0  0  0  0
    1.5160   20.7330   12.0130 H   0  0  0  0  0  0  0  0  0  0  0  0
    2.2510   21.2990   13.4560 H   0  0  0  0  0  0  0  0  0  0  0  0
    4.4040   17.5630    9.5220 H   0  0  0  0  0  0  0  0  0  0  0  0
    4.4790   17.8680   16.2250 H   0  0  0  0  0  0  0  0  0  0  0  0
    3.8840   16.2810   16.2810 H   0  0  0  0  0  0  0  0  0  0  0  0
    3.5400   18.0840   18.2340 H   0  0  0  0  0  0  0  0  0  0  0  0
    2.0630   18.4450   17.3480 H   0  0  0  0  0  0  0  0  0  0  0  0
    1.2620   16.1520   17.6490 H   0  0  0  0  0  0  0  0  0  0  0  0
    2.8370   15.6460   18.2750 H   0  0  0  0  0  0  0  0  0  0  0  0
    2.5470   17.2490   20.1970 H   0  0  0  0  0  0  0  0  0  0  0  0
    0.9060   17.5670   19.6230 H   0  0  0  0  0  0  0  0  0  0  0  0
  1  2  1  0  0  0  0
  1  4  1  0  0  0  0
  1  9  2  0  0  0  0
  2  3  2  0  0  0  0
  2 32  1  0  0  0  0
  3  5  1  0  0  0  0
  3  6  1  0  0  0  0
  4 33  1  0  0  0  0
  5 19  2  0  0  0  0
  5 34  1  0  0  0  0
  6  7  1  0  0  0  0
  6  8  2  0  0  0  0
  7 10  1  0  0  0  0
  7 35  1  0  0  0  0
  9 16  1  0  0  0  0
  9 19  1  0  0  0  0
 10 11  2  0  0  0  0
 10 12  1  0  0  0  0
 11 13  1  0  0  0  0
 11 17  1  0  0  0  0
 12 14  2  0  0  0  0
 12 15  1  0  0  0  0
 15 18  1  0  0  0  0
 15 20  1  0  0  0  0
 16 36  1  0  0  0  0
 17 20  1  0  0  0  0
 17 23  1  0  0  0  0
 18 21  1  0  0  0  0
 18 37  1  0  0  0  0
 18 38  1  0  0  0  0
 19 39  1  0  0  0  0
 20 22  2  0  0  0  0
 21 24  2  0  0  0  0
 21 26  1  0  0  0  0
 23 25  1  0  0  0  0
 23 40  1  0  0  0  0
 23 41  1  0  0  0  0
 25 27  1  0  0  0  0
 25 42  1  0  0  0  0
 25 43  1  0  0  0  0
 27 28  1  0  0  0  0
 27 44  1  0  0  0  0
 27 45  1  0  0  0  0
 28 29  1  0  0  0  0
 28 46  1  0  0  0  0
 28 47  1  0  0  0  0
 29 30  2  0  0  0  0
 29 31  1  0  0  0  0
M  CHG  1  13  -1
M  CHG  1  26  -1
M  CHG  1  31  -1
M  END
> <rseq>
1

> <mseq>
267

> <S>
-5.905028

> <rmsd_refine>
2.321856

> <E_conf>
-315.7897

> <E_score1>
-13.63831

> <E_refine>
-36.48409

> <E_score2>
-5.905028

>  <$File>
outputs/pdb_4j58_cleaned.pdb_2024_06_17__22_47_40_V2_BS398_MIN1_/SDF/sdf_db.sdf

> <Rec_index>
1

>  <PLIF_raw>
[[4,16,30,31,24,24,26,30,30,31,31],[1056,2222,1212,1206,826,829,829,1206,1212,1206,1212],[70,148,81,81,54,54,54,81,81,81,81],[3,3,2,2,7,7,7,7,7,7,7],[2,1,8,0.5,0.9405187041,4.364193581,2.927072715,1.285285302,4.296993421,2.546264986,2.667129939]]

> <FP:PLIF>
1 16 3 4 17 18 24 25 39

>  <PLIF_ligidx>
[[24,24,26],24,4,4,[30,31],30,[30,30,31,31],30,16]

$$$$
267
  MOE2022           3D

 64 66  0  0  1  0  0  0  0  0999 V2000
    8.1440   21.3880   18.8870 C   0  0  0  0  0  0  0  0  0  0  0  0
    7.7960   20.5180   17.8610 C   0  0  0  0  0  0  0  0  0  0  0  0
    7.1830   22.2350   19.4280 C   0  0  0  0  0  0  0  0  0  0  0  0
    5.8790   22.2120   18.9430 C   0  0  0  0  0  0  0  0  0  0  0  0
    6.4930   20.4980   17.3770 C   0  0  0  0  0  0  0  0  0  0  0  0
    5.5210   21.3360   17.9220 C   0  0  0  0  0  0  0  0  0  0  0  0
    4.0830   21.3150   17.4270 C   0  0  0  0  0  0  0  0  0  0  0  0
    3.6310   20.0460   16.8210 N   0  0  0  0  0  0  0  0  0  0  0  0
    3.5490   18.9170   17.5620 C   0  0  0  0  0  0  0  0  0  0  0  0
    3.2410   20.1000   15.4120 C   0  0  0  0  0  0  0  0  0  0  0  0
    2.8650   17.6400   17.0010 C   0  0  2  0  0  0  0  0  0  0  0  0
    4.0340   18.8580   18.6910 O   0  0  0  0  0  0  0  0  0  0  0  0
    2.3480   17.7590   15.5520 C   0  0  1  0  0  0  0  0  0  0  0  0
    1.7630   17.1850   17.8880 N   0  3  0  0  0  0  0  0  0  0  0  0
    3.2170   18.7240   14.7490 C   0  0  0  0  0  0  0  0  0  0  0  0
    2.3220   16.3840   14.8790 C   0  0  0  0  0  0  0  0  0  0  0  0
    1.2940   16.1340   14.0600 N   0  0  0  0  0  0  0  0  0  0  0  0
    3.2260   15.5800   15.0970 O   0  0  0  0  0  0  0  0  0  0  0  0
    2.2720   16.4800   19.0810 C   0  0  0  0  0  0  0  0  0  0  0  0
    1.1520   16.2120   20.0850 C   0  0  0  0  0  0  0  0  0  0  0  0
    1.7380   15.7270   21.4140 C   0  0  0  0  0  0  0  0  0  0  0  0
    1.0690   14.8690   13.3720 C   0  0  0  0  0  0  0  0  0  0  0  0
    1.1630   15.0310   11.8500 C   0  0  0  0  0  0  0  0  0  0  0  0
    2.5750   15.2580   11.3260 C   0  0  0  0  0  0  0  0  0  0  0  0
    3.0230   16.5050   10.8530 C   0  0  0  0  0  0  0  0  0  0  0  0
    3.4370   14.1560   11.3020 C   0  0  0  0  0  0  0  0  0  0  0  0
    2.1320   17.7340   10.8480 C   0  0  0  0  0  0  0  0  0  0  0  0
    4.3180   16.6220   10.3460 C   0  0  0  0  0  0  0  0  0  0  0  0
    5.1450   15.5080   10.3330 C   0  0  0  0  0  0  0  0  0  0  0  0
    6.4020   15.6330    9.8490 F   0  0  0  0  0  0  0  0  0  0  0  0
    4.7300   14.2740   10.8090 C   0  0  0  0  0  0  0  0  0  0  0  0
    9.1370   21.4040   19.2550 H   0  0  0  0  0  0  0  0  0  0  0  0
    8.5210   19.8670   17.4490 H   0  0  0  0  0  0  0  0  0  0  0  0
    7.4450   22.8950   20.2120 H   0  0  0  0  0  0  0  0  0  0  0  0
    5.1530   22.8640   19.3560 H   0  0  0  0  0  0  0  0  0  0  0  0
    6.2390   19.8330   16.5980 H   0  0  0  0  0  0  0  0  0  0  0  0
    3.4240   21.5550   18.2520 H   0  0  0  0  0  0  0  0  0  0  0  0
    3.9470   22.1290   16.7270 H   0  0  0  0  0  0  0  0  0  0  0  0
    2.2660   20.5620   15.3280 H   0  0  0  0  0  0  0  0  0  0  0  0
    3.9200   20.7420   14.8650 H   0  0  0  0  0  0  0  0  0  0  0  0
    3.6280   16.8630   16.9940 H   0  0  0  0  0  0  0  0  0  0  0  0
    1.3360   18.1680   15.5740 H   0  0  0  0  0  0  0  0  0  0  0  0
    1.2390   17.9970   18.1860 H   0  0  0  0  0  0  0  0  0  0  0  0
    1.1530   16.5580   17.3830 H   0  0  0  0  0  0  0  0  0  0  0  0
    2.8270   18.8220   13.7360 H   0  0  0  0  0  0  0  0  0  0  0  0
    4.2320   18.3310   14.6950 H   0  0  0  0  0  0  0  0  0  0  0  0
    0.6060   16.8570   13.9080 H   0  0  0  0  0  0  0  0  0  0  0  0
    2.7380   15.5410   18.7830 H   0  0  0  0  0  0  0  0  0  0  0  0
    3.0170   17.0980   19.5820 H   0  0  0  0  0  0  0  0  0  0  0  0
    0.6150   17.1420   20.2670 H   0  0  0  0  0  0  0  0  0  0  0  0
    0.4590   15.4690   19.6870 H   0  0  0  0  0  0  0  0  0  0  0  0
    2.6070   16.3270   21.6820 H   0  0  0  0  0  0  0  0  0  0  0  0
    0.9900   15.8310   22.1980 H   0  0  0  0  0  0  0  0  0  0  0  0
    2.0380   14.6840   21.3360 H   0  0  0  0  0  0  0  0  0  0  0  0
    1.7780   14.1080   13.7030 H   0  0  0  0  0  0  0  0  0  0  0  0
    0.0640   14.5300   13.6170 H   0  0  0  0  0  0  0  0  0  0  0  0
    0.7920   14.1090   11.4000 H   0  0  0  0  0  0  0  0  0  0  0  0
    0.4840   15.8200   11.5310 H   0  0  0  0  0  0  0  0  0  0  0  0
    3.1010   13.2170   11.6580 H   0  0  0  0  0  0  0  0  0  0  0  0
    1.6620   17.8810   11.8190 H   0  0  0  0  0  0  0  0  0  0  0  0
    2.7010   18.6350   10.6180 H   0  0  0  0  0  0  0  0  0  0  0  0
    1.3500   17.6310   10.0950 H   0  0  0  0  0  0  0  0  0  0  0  0
    4.6710   17.5480    9.9710 H   0  0  0  0  0  0  0  0  0  0  0  0
    5.3830   13.4400   10.7950 H   0  0  0  0  0  0  0  0  0  0  0  0
  1  2  1  0  0  0  0
  1  3  2  0  0  0  0
  1 32  1  0  0  0  0
  2  5  2  0  0  0  0
  2 33  1  0  0  0  0
  3  4  1  0  0  0  0
  3 34  1  0  0  0  0
  4  6  2  0  0  0  0
  4 35  1  0  0  0  0
  5  6  1  0  0  0  0
  5 36  1  0  0  0  0
  6  7  1  0  0  0  0
  7  8  1  0  0  0  0
  7 37  1  0  0  0  0
  7 38  1  0  0  0  0
  8  9  1  0  0  0  0
  8 10  1  0  0  0  0
  9 11  1  0  0  0  0
  9 12  2  0  0  0  0
 10 15  1  0  0  0  0
 10 39  1  0  0  0  0
 10 40  1  0  0  0  0
 11 13  1  0  0  0  0
 11 14  1  0  0  0  0
 11 41  1  0  0  0  0
 13 15  1  0  0  0  0
 13 16  1  0  0  0  0
 13 42  1  0  0  0  0
 14 19  1  0  0  0  0
 14 43  1  0  0  0  0
 14 44  1  0  0  0  0
 15 45  1  0  0  0  0
 15 46  1  0  0  0  0
 16 17  1  0  0  0  0
 16 18  2  0  0  0  0
 17 22  1  0  0  0  0
 17 47  1  0  0  0  0
 19 20  1  0  0  0  0
 19 48  1  0  0  0  0
 19 49  1  0  0  0  0
 20 21  1  0  0  0  0
 20 50  1  0  0  0  0
 20 51  1  0  0  0  0
 21 52  1  0  0  0  0
 21 53  1  0  0  0  0
 21 54  1  0  0  0  0
 22 23  1  0  0  0  0
 22 55  1  0  0  0  0
 22 56  1  0  0  0  0
 23 24  1  0  0  0  0
 23 57  1  0  0  0  0
 23 58  1  0  0  0  0
 24 25  1  0  0  0  0
 24 26  2  0  0  0  0
 25 27  1  0  0  0  0
 25 28  2  0  0  0  0
 26 31  1  0  0  0  0
 26 59  1  0  0  0  0
 27 60  1  0  0  0  0
 27 61  1  0  0  0  0
 27 62  1  0  0  0  0
 28 29  1  0  0  0  0
 28 63  1  0  0  0  0
 29 30  1  0  0  0  0
 29 31  2  0  0  0  0
 31 64  1  0  0  0  0
M  CHG  1  14   1
M  END
> <rseq>
1

> <mseq>
268

> <S>
-7.134235

> <rmsd_refine>
1.033864

> <E_conf>
-29.95715

> <E_score1>
-10.72194

> <E_refine>
-33.71991

> <E_score2>
-7.134235

>  <$File>
outputs/pdb_4j58_cleaned.pdb_2024_06_17__22_47_40_V2_BS398_MIN1_/SDF/sdf_db.sdf

> <Rec_index>
1

>  <PLIF_raw>
[19,1617,110,1,0.7]

> <FP:PLIF>
26

>  <PLIF_ligidx>
19

$$$$
268
  MOE2022           3D

 52 54  0  0  1  0  0  0  0  0999 V2000
    8.4270   20.7380   18.6000 C   0  0  0  0  0  0  0  0  0  0  0  0
    8.4550   21.9750   17.9670 C   0  0  0  0  0  0  0  0  0  0  0  0
    7.2150   20.0890   18.8100 C   0  0  0  0  0  0  0  0  0  0  0  0
    6.0220   20.6720   18.3840 C   0  0  0  0  0  0  0  0  0  0  0  0
    6.0560   21.9140   17.7480 C   0  0  0  0  0  0  0  0  0  0  0  0
    7.2690   22.5640   17.5420 C   0  0  0  0  0  0  0  0  0  0  0  0
    4.7000   19.9580   18.5990 C   0  0  0  0  0  0  0  0  0  0  0  0
    4.2120   19.1370   17.4040 C   0  0  0  0  0  0  0  0  0  0  0  0
    3.1300   18.2140   17.4810 N   0  0  0  0  0  0  0  0  0  0  0  0
    2.6890   17.6490   18.7040 C   0  0  0  0  0  0  0  0  0  0  0  0
    2.4370   17.8450   16.2140 C   0  0  2  0  0  0  0  0  0  0  0  0
    4.7030   19.3490   16.3120 O   0  0  0  0  0  0  0  0  0  0  0  0
    1.1130   18.6340   16.1200 C   0  0  1  0  0  0  0  0  0  0  0  0
    1.2880   17.2910   18.9940 C   0  0  0  0  0  0  0  0  0  0  0  0
    2.3580   16.3090   15.9960 C   0  0  0  0  0  0  0  0  0  0  0  0
    0.9820   16.7610   20.0510 O   0  0  0  0  0  0  0  0  0  0  0  0
    3.5440   17.4220   19.5500 O   0  0  0  0  0  0  0  0  0  0  0  0
    0.7460   18.8690   14.7770 O   0  0  0  0  0  0  0  0  0  0  0  0
   -0.0510   17.9560   16.8310 C   0  0  0  0  0  0  0  0  0  0  0  0
    1.9450   15.8370   14.5910 C   0  0  0  0  0  0  0  0  0  0  0  0
    3.0740   15.6140   13.7100 O   0  0  0  0  0  0  0  0  0  0  0  0
    3.2900   16.2840   12.5140 C   0  0  0  0  0  0  0  0  0  0  0  0
    0.2330   17.5160   18.1740 O   0  0  0  0  0  0  0  0  0  0  0  0
    3.7780   15.5660   11.4140 C   0  0  0  0  0  0  0  0  0  0  0  0
    3.0700   17.6590   12.4100 C   0  0  0  0  0  0  0  0  0  0  0  0
    3.3480   18.3000   11.2050 C   0  0  0  0  0  0  0  0  0  0  0  0
    4.0000   14.2170   11.5080 O   0  0  0  0  0  0  0  0  0  0  0  0
    3.1390   19.6550   11.1270 O   0  0  0  0  0  0  0  0  0  0  0  0
    3.8380   17.5770   10.1080 C   0  0  0  0  0  0  0  0  0  0  0  0
    4.1200   18.1970    8.9140 O   0  0  0  0  0  0  0  0  0  0  0  0
    4.0550   16.2050   10.2080 C   0  0  0  0  0  0  0  0  0  0  0  0
    9.3310   20.2890   18.9200 H   0  0  0  0  0  0  0  0  0  0  0  0
    9.3790   22.4670   17.8070 H   0  0  0  0  0  0  0  0  0  0  0  0
    7.2030   19.1470   19.2940 H   0  0  0  0  0  0  0  0  0  0  0  0
    5.1570   22.3650   17.4160 H   0  0  0  0  0  0  0  0  0  0  0  0
    7.2900   23.5070   17.0590 H   0  0  0  0  0  0  0  0  0  0  0  0
    4.7830   19.3840   19.5050 H   0  0  0  0  0  0  0  0  0  0  0  0
    3.9460   20.7000   18.8150 H   0  0  0  0  0  0  0  0  0  0  0  0
    3.0250   18.1910   15.3790 H   0  0  0  0  0  0  0  0  0  0  0  0
    1.2770   19.6080   16.5850 H   0  0  0  0  0  0  0  0  0  0  0  0
    3.3330   15.8740   16.2210 H   0  0  0  0  0  0  0  0  0  0  0  0
    1.6520   15.8850   16.7040 H   0  0  0  0  0  0  0  0  0  0  0  0
    0.0380   19.5180   14.7540 H   0  0  0  0  0  0  0  0  0  0  0  0
   -0.8900   18.6520   16.8730 H   0  0  0  0  0  0  0  0  0  0  0  0
   -0.3660   17.0880   16.2520 H   0  0  0  0  0  0  0  0  0  0  0  0
    1.4380   14.8780   14.6980 H   0  0  0  0  0  0  0  0  0  0  0  0
    1.2400   16.5270   14.1320 H   0  0  0  0  0  0  0  0  0  0  0  0
    2.7120   18.2160   13.2320 H   0  0  0  0  0  0  0  0  0  0  0  0
    3.7920   13.8920   12.4080 H   0  0  0  0  0  0  0  0  0  0  0  0
    3.2880   19.9930   10.2240 H   0  0  0  0  0  0  0  0  0  0  0  0
    3.8820   19.1420    8.9340 H   0  0  0  0  0  0  0  0  0  0  0  0
    4.4250   15.6560    9.3800 H   0  0  0  0  0  0  0  0  0  0  0  0
  1  2  2  0  0  0  0
  1  3  1  0  0  0  0
  1 32  1  0  0  0  0
  2  6  1  0  0  0  0
  2 33  1  0  0  0  0
  3  4  2  0  0  0  0
  3 34  1  0  0  0  0
  4  5  1  0  0  0  0
  4  7  1  0  0  0  0
  5  6  2  0  0  0  0
  5 35  1  0  0  0  0
  6 36  1  0  0  0  0
  7  8  1  0  0  0  0
  7 37  1  0  0  0  0
  7 38  1  0  0  0  0
  8  9  1  0  0  0  0
  8 12  2  0  0  0  0
  9 10  1  0  0  0  0
  9 11  1  0  0  0  0
 10 14  1  0  0  0  0
 10 17  2  0  0  0  0
 11 13  1  0  0  0  0
 11 15  1  0  0  0  0
 11 39  1  0  0  0  0
 13 18  1  0  0  0  0
 13 19  1  0  0  0  0
 13 40  1  0  0  0  0
 14 16  2  0  0  0  0
 14 23  1  0  0  0  0
 15 20  1  0  0  0  0
 15 41  1  0  0  0  0
 15 42  1  0  0  0  0
 18 43  1  0  0  0  0
 19 23  1  0  0  0  0
 19 44  1  0  0  0  0
 19 45  1  0  0  0  0
 20 21  1  0  0  0  0
 20 46  1  0  0  0  0
 20 47  1  0  0  0  0
 21 22  1  0  0  0  0
 22 24  1  0  0  0  0
 22 25  2  0  0  0  0
 24 27  1  0  0  0  0
 24 31  2  0  0  0  0
 25 26  1  0  0  0  0
 25 48  1  0  0  0  0
 26 28  1  0  0  0  0
 26 29  2  0  0  0  0
 27 49  1  0  0  0  0
 28 50  1  0  0  0  0
 29 30  1  0  0  0  0
 29 31  1  0  0  0  0
 30 51  1  0  0  0  0
 31 52  1  0  0  0  0
M  END
> <rseq>
1

> <mseq>
269

> <S>
-6.56013

> <rmsd_refine>
0.9716055

> <E_conf>
48.47223

> <E_score1>
-9.341582

> <E_refine>
-35.67347

> <E_score2>
-6.56013

>  <$File>
outputs/pdb_4j58_cleaned.pdb_2024_06_17__22_47_40_V2_BS398_MIN1_/SDF/sdf_db.sdf

> <Rec_index>
1

>  <PLIF_raw>
[27,1056,70,3,0.8]

> <FP:PLIF>
3

>  <PLIF_ligidx>
27

$$$$
269
  MOE2022           3D

 56 58  0  0  1  0  0  0  0  0999 V2000
    1.3830   16.0640   20.4090 C   0  0  0  0  0  0  0  0  0  0  0  0
    0.0410   15.7270   20.2660 C   0  0  0  0  0  0  0  0  0  0  0  0
    2.0760   16.6270   19.3420 C   0  0  0  0  0  0  0  0  0  0  0  0
   -0.6030   15.9410   19.0530 C   0  0  0  0  0  0  0  0  0  0  0  0
    0.0870   16.5150   17.9900 C   0  0  0  0  0  0  0  0  0  0  0  0
    1.4270   16.8730   18.1280 C   0  0  0  0  0  0  0  0  0  0  0  0
    2.1500   17.5020   16.9460 C   0  0  1  0  0  0  0  0  0  0  0  0
    3.1500   18.4900   17.3850 N   0  0  0  0  0  0  0  0  0  0  0  0
    2.7340   16.4390   16.0230 C   0  0  0  0  0  0  0  0  0  0  0  0
    3.9300   19.2470   16.5410 C   0  0  0  0  0  0  0  0  0  0  0  0
    2.1860   16.3270   14.8020 N   0  0  0  0  0  0  0  0  0  0  0  0
    3.6720   19.2070   15.3390 O   0  0  0  0  0  0  0  0  0  0  0  0
    5.0290   20.0340   17.1150 C   0  0  0  0  0  0  0  0  0  0  0  0
    3.6820   15.7380   16.3710 O   0  0  0  0  0  0  0  0  0  0  0  0
    2.7370   15.4880   13.7460 C   0  0  1  0  0  0  0  0  0  0  0  0
    1.7690   14.4230   13.2400 C   0  0  0  0  0  0  0  0  0  0  0  0
    3.0110   16.2700   12.4690 C   0  0  0  0  0  0  0  0  0  0  0  0
    5.4980   19.7610   18.4160 C   0  0  0  0  0  0  0  0  0  0  0  0
    2.3420   14.0910   11.8550 C   0  0  0  0  0  0  0  0  0  0  0  0
    5.6790   21.0600   16.3870 C   0  0  0  0  0  0  0  0  0  0  0  0
    3.1870   15.2240   11.4770 N   0  0  0  0  0  0  0  0  0  0  0  0
    6.5890   20.4520   18.9290 C   0  0  0  0  0  0  0  0  0  0  0  0
    5.2550   21.4230   15.1400 O   0  0  0  0  0  0  0  0  0  0  0  0
    4.1940   15.2080   10.5800 C   0  0  0  0  0  0  0  0  0  0  0  0
    7.2380   21.4290   18.1690 C   0  0  0  0  0  0  0  0  0  0  0  0
    8.3350   22.0690   18.6670 O   0  0  0  0  0  0  0  0  0  0  0  0
    4.9190   16.1870   10.4010 O   0  0  0  0  0  0  0  0  0  0  0  0
    7.0290   20.1640   20.1940 O   0  0  0  0  0  0  0  0  0  0  0  0
    6.7790   21.7490   16.8990 C   0  0  0  0  0  0  0  0  0  0  0  0
    4.4420   13.9180    9.7790 C   0  0  0  0  0  0  0  0  0  0  0  0
    5.6320   14.0060    8.8140 C   0  0  0  0  0  0  0  0  0  0  0  0
    1.8790   15.8920   21.3300 H   0  0  0  0  0  0  0  0  0  0  0  0
   -0.4940   15.3110   21.0770 H   0  0  0  0  0  0  0  0  0  0  0  0
    3.1010   16.8670   19.4620 H   0  0  0  0  0  0  0  0  0  0  0  0
   -1.6220   15.6750   18.9400 H   0  0  0  0  0  0  0  0  0  0  0  0
   -0.4160   16.6790   17.0720 H   0  0  0  0  0  0  0  0  0  0  0  0
    1.4070   18.0520   16.3830 H   0  0  0  0  0  0  0  0  0  0  0  0
    3.3030   18.5650   18.4010 H   0  0  0  0  0  0  0  0  0  0  0  0
    1.4070   16.9190   14.5590 H   0  0  0  0  0  0  0  0  0  0  0  0
    3.6590   15.0000   14.0650 H   0  0  0  0  0  0  0  0  0  0  0  0
    1.7640   13.5500   13.8890 H   0  0  0  0  0  0  0  0  0  0  0  0
    0.7650   14.8390   13.1350 H   0  0  0  0  0  0  0  0  0  0  0  0
    2.1510   16.8870   12.2060 H   0  0  0  0  0  0  0  0  0  0  0  0
    3.8930   16.8950   12.5870 H   0  0  0  0  0  0  0  0  0  0  0  0
    5.0340   19.0180   19.0110 H   0  0  0  0  0  0  0  0  0  0  0  0
    2.9360   13.1810   11.9240 H   0  0  0  0  0  0  0  0  0  0  0  0
    1.5360   13.9520   11.1340 H   0  0  0  0  0  0  0  0  0  0  0  0
    4.4780   20.8820   14.8810 H   0  0  0  0  0  0  0  0  0  0  0  0
    8.5760   21.6880   19.5360 H   0  0  0  0  0  0  0  0  0  0  0  0
    6.5630   19.3820   20.5480 H   0  0  0  0  0  0  0  0  0  0  0  0
    7.2580   22.5020   16.3280 H   0  0  0  0  0  0  0  0  0  0  0  0
    4.6340   13.1020   10.4750 H   0  0  0  0  0  0  0  0  0  0  0  0
    3.5430   13.6790    9.2090 H   0  0  0  0  0  0  0  0  0  0  0  0
    6.5450   14.2150    9.3740 H   0  0  0  0  0  0  0  0  0  0  0  0
    5.7460   13.0580    8.2880 H   0  0  0  0  0  0  0  0  0  0  0  0
    5.4620   14.8010    8.0880 H   0  0  0  0  0  0  0  0  0  0  0  0
  1  2  2  0  0  0  0
  1  3  1  0  0  0  0
  1 32  1  0  0  0  0
  2  4  1  0  0  0  0
  2 33  1  0  0  0  0
  3  6  2  0  0  0  0
  3 34  1  0  0  0  0
  4  5  2  0  0  0  0
  4 35  1  0  0  0  0
  5  6  1  0  0  0  0
  5 36  1  0  0  0  0
  6  7  1  0  0  0  0
  7  8  1  0  0  0  0
  7  9  1  0  0  0  0
  7 37  1  0  0  0  0
  8 10  1  0  0  0  0
  8 38  1  0  0  0  0
  9 11  1  0  0  0  0
  9 14  2  0  0  0  0
 10 12  2  0  0  0  0
 10 13  1  0  0  0  0
 11 15  1  0  0  0  0
 11 39  1  0  0  0  0
 13 18  1  0  0  0  0
 13 20  2  0  0  0  0
 15 16  1  0  0  0  0
 15 17  1  0  0  0  0
 15 40  1  0  0  0  0
 16 19  1  0  0  0  0
 16 41  1  0  0  0  0
 16 42  1  0  0  0  0
 17 21  1  0  0  0  0
 17 43  1  0  0  0  0
 17 44  1  0  0  0  0
 18 22  2  0  0  0  0
 18 45  1  0  0  0  0
 19 21  1  0  0  0  0
 19 46  1  0  0  0  0
 19 47  1  0  0  0  0
 20 23  1  0  0  0  0
 20 29  1  0  0  0  0
 21 24  1  0  0  0  0
 22 25  1  0  0  0  0
 22 28  1  0  0  0  0
 23 48  1  0  0  0  0
 24 27  2  0  0  0  0
 24 30  1  0  0  0  0
 25 26  1  0  0  0  0
 25 29  2  0  0  0  0
 26 49  1  0  0  0  0
 28 50  1  0  0  0  0
 29 51  1  0  0  0  0
 30 31  1  0  0  0  0
 30 52  1  0  0  0  0
 30 53  1  0  0  0  0
 31 54  1  0  0  0  0
 31 55  1  0  0  0  0
 31 56  1  0  0  0  0
M  END
> <rseq>
1

> <mseq>
270

> <S>
-7.126236

> <rmsd_refine>
1.697326

> <E_conf>
-12.26593

> <E_score1>
-9.575152

> <E_refine>
-42.30811

> <E_score2>
-7.126236

>  <$File>
outputs/pdb_4j58_cleaned.pdb_2024_06_17__22_47_40_V2_BS398_MIN1_/SDF/sdf_db.sdf

> <Rec_index>
1

>  <PLIF_raw>
[[14,27,26,26,26,26,26,26,1,3,6,5,4,2],[954,823,1651,1655,1659,1657,1653,1650,1519,1519,1519,1519,1519,1519],[62,54,112,112,112,112,112,112,102,102,102,102,102,102],[2,2,10,10,10,10,10,10,10,10,10,10,10,10],[1.5,2.3,2.1,2.1,2.1,2.1,2.1,2.1,0.7,0.7,0.7,0.7,0.7,0.7]]

> <FP:PLIF>
6 19 20 23 22 15 47

>  <PLIF_ligidx>
[27,27,14,14,[1,3,6,5,4,2],[26,26,26,26,26,26],[26,26,26,26,26,26]]

$$$$
270
  MOE2022           3D

 49 53  0  0  0  0  0  0  0  0999 V2000
    7.2040   20.8480   19.0690 C   0  0  0  0  0  0  0  0  0  0  0  0
    6.2370   19.8890   18.7840 C   0  0  0  0  0  0  0  0  0  0  0  0
    5.0130   20.2430   18.2010 C   0  0  0  0  0  0  0  0  0  0  0  0
    4.0090   19.2210   17.8820 C   0  0  0  0  0  0  0  0  0  0  0  0
    3.4050   19.1560   16.6210 C   0  0  0  0  0  0  0  0  0  0  0  0
    3.5990   18.3160   18.8630 C   0  0  0  0  0  0  0  0  0  0  0  0
    2.5420   17.4200   18.6550 C   0  0  0  0  0  0  0  0  0  0  0  0
    2.3650   18.2610   16.3780 C   0  0  0  0  0  0  0  0  0  0  0  0
    2.0470   16.5810   19.7450 C   0  0  0  0  0  0  0  0  0  0  0  0
    1.9430   17.4000   17.3870 C   0  0  0  0  0  0  0  0  0  0  0  0
    1.6630   18.2570   15.0340 C   0  0  0  0  0  0  0  0  0  0  0  0
    0.8600   16.0170   19.7550 N   0  0  0  0  0  0  0  0  0  0  0  0
    2.7190   16.3360   20.8490 N   0  0  0  0  0  0  0  0  0  0  0  0
    1.9180   15.5930   21.5820 N   0  5  0  0  0  0  0  0  0  0  0  0
    2.2250   17.3080   14.0620 N   0  0  0  0  0  0  0  0  0  0  0  0
    4.7820   21.6110   17.9680 C   0  0  0  0  0  0  0  0  0  0  0  0
    3.0270   17.7270   13.0080 C   0  0  0  0  0  0  0  0  0  0  0  0
    0.7860   15.4020   20.9150 N   0  0  0  0  0  0  0  0  0  0  0  0
    3.4180   16.7560   11.9770 C   0  0  0  0  0  0  0  0  0  0  0  0
    3.5790   22.0380   17.4860 O   0  0  0  0  0  0  0  0  0  0  0  0
    3.3980   18.9000   12.9770 O   0  0  0  0  0  0  0  0  0  0  0  0
    3.9910   17.1870   10.7720 C   0  0  0  0  0  0  0  0  0  0  0  0
    6.9630   22.1910   18.7910 C   0  0  0  0  0  0  0  0  0  0  0  0
    5.7470   22.5760   18.2420 C   0  0  0  0  0  0  0  0  0  0  0  0
    4.4070   16.2480    9.8340 C   0  0  0  0  0  0  0  0  0  0  0  0
    4.9980   16.6650    8.6780 O   0  0  0  0  0  0  0  0  0  0  0  0
    3.2510   15.3780   12.2000 C   0  0  0  0  0  0  0  0  0  0  0  0
    2.6740   14.9120   13.5170 C   0  0  0  0  0  0  0  0  0  0  0  0
    1.6980   15.9380   14.0960 C   0  0  0  0  0  0  0  0  0  0  0  0
    3.6610   14.4540   11.2400 C   0  0  0  0  0  0  0  0  0  0  0  0
    4.2430   14.8840   10.0540 C   0  0  0  0  0  0  0  0  0  0  0  0
    8.1280   20.5560   19.4960 H   0  0  0  0  0  0  0  0  0  0  0  0
    6.4360   18.8780   19.0150 H   0  0  0  0  0  0  0  0  0  0  0  0
    3.7260   19.8090   15.8500 H   0  0  0  0  0  0  0  0  0  0  0  0
    4.0670   18.3440   19.8100 H   0  0  0  0  0  0  0  0  0  0  0  0
    1.1430   16.7300   17.2020 H   0  0  0  0  0  0  0  0  0  0  0  0
    0.6150   18.0320   15.1840 H   0  0  0  0  0  0  0  0  0  0  0  0
    1.6560   19.2600   14.6300 H   0  0  0  0  0  0  0  0  0  0  0  0
    2.9570   21.2850   17.4210 H   0  0  0  0  0  0  0  0  0  0  0  0
    4.1180   18.2210   10.5790 H   0  0  0  0  0  0  0  0  0  0  0  0
    7.7050   22.9160   19.0000 H   0  0  0  0  0  0  0  0  0  0  0  0
    5.5520   23.5980   18.0390 H   0  0  0  0  0  0  0  0  0  0  0  0
    5.0780   17.6390    8.6590 H   0  0  0  0  0  0  0  0  0  0  0  0
    2.1640   13.9550   13.3980 H   0  0  0  0  0  0  0  0  0  0  0  0
    3.4970   14.7910   14.2190 H   0  0  0  0  0  0  0  0  0  0  0  0
    1.4440   15.6530   15.1080 H   0  0  0  0  0  0  0  0  0  0  0  0
    0.7710   15.9050   13.5390 H   0  0  0  0  0  0  0  0  0  0  0  0
    3.5360   13.4160   11.4160 H   0  0  0  0  0  0  0  0  0  0  0  0
    4.5610   14.1820    9.3260 H   0  0  0  0  0  0  0  0  0  0  0  0
  1  2  1  0  0  0  0
  1 23  2  0  0  0  0
  1 32  1  0  0  0  0
  2  3  2  0  0  0  0
  2 33  1  0  0  0  0
  3  4  1  0  0  0  0
  3 16  1  0  0  0  0
  4  5  1  0  0  0  0
  4  6  2  0  0  0  0
  5  8  2  0  0  0  0
  5 34  1  0  0  0  0
  6  7  1  0  0  0  0
  6 35  1  0  0  0  0
  7  9  1  0  0  0  0
  7 10  2  0  0  0  0
  8 10  1  0  0  0  0
  8 11  1  0  0  0  0
  9 12  1  0  0  0  0
  9 13  2  0  0  0  0
 10 36  1  0  0  0  0
 11 15  1  0  0  0  0
 11 37  1  0  0  0  0
 11 38  1  0  0  0  0
 12 18  2  0  0  0  0
 13 14  1  0  0  0  0
 14 18  1  0  0  0  0
 15 17  1  0  0  0  0
 15 29  1  0  0  0  0
 16 20  1  0  0  0  0
 16 24  2  0  0  0  0
 17 19  1  0  0  0  0
 17 21  2  0  0  0  0
 19 22  2  0  0  0  0
 19 27  1  0  0  0  0
 20 39  1  0  0  0  0
 22 25  1  0  0  0  0
 22 40  1  0  0  0  0
 23 24  1  0  0  0  0
 23 41  1  0  0  0  0
 24 42  1  0  0  0  0
 25 26  1  0  0  0  0
 25 31  2  0  0  0  0
 26 43  1  0  0  0  0
 27 28  1  0  0  0  0
 27 30  2  0  0  0  0
 28 29  1  0  0  0  0
 28 44  1  0  0  0  0
 28 45  1  0  0  0  0
 29 46  1  0  0  0  0
 29 47  1  0  0  0  0
 30 31  1  0  0  0  0
 30 48  1  0  0  0  0
 31 49  1  0  0  0  0
M  CHG  1  14  -1
M  END
> <rseq>
1

> <mseq>
271

> <S>
-6.596631

> <rmsd_refine>
0.7589708

> <E_conf>
-57.45654

> <E_score1>
-11.91847

> <E_refine>
-38.87519

> <E_score2>
-6.596631

>  <$File>
outputs/pdb_4j58_cleaned.pdb_2024_06_17__22_47_40_V2_BS398_MIN1_/SDF/sdf_db.sdf

> <Rec_index>
1

>  <PLIF_raw>
[[18,18,14,14,18,18,4,6,7,10,8,5],[1206,1212,1206,1212,1206,1212,954,954,954,954,954,954],[81,81,81,81,81,81,62,62,62,62,62,62],[2,2,7,7,7,7,10,10,10,10,10,10],[3.1,1.3,1.891838608,1.571007208,3.002776793,3.977108895,0.6,0.6,0.6,0.6,0.6,0.6]]

> <FP:PLIF>
21 17 18 24 25

>  <PLIF_ligidx>
[[4,6,7,10,8,5],[18,18],18,[14,14,18,18],18]

$$$$
271
  MOE2022           3D

 61 63  0  0  1  0  0  0  0  0999 V2000
    2.4110   16.3200   20.7220 C   0  0  0  0  0  0  0  0  0  0  0  0
    1.1120   15.8680   20.9020 C   0  0  0  0  0  0  0  0  0  0  0  0
    2.7640   16.9670   19.5450 C   0  0  0  0  0  0  0  0  0  0  0  0
    0.1680   16.0480   19.8990 C   0  0  0  0  0  0  0  0  0  0  0  0
    0.5220   16.6930   18.7170 C   0  0  0  0  0  0  0  0  0  0  0  0
    1.8210   17.1660   18.5330 C   0  0  0  0  0  0  0  0  0  0  0  0
    2.1940   17.8620   17.2320 C   0  0  1  0  0  0  0  0  0  0  0  0
    3.2020   18.9080   17.4700 N   0  0  0  0  0  0  0  0  0  0  0  0
    2.5890   16.8430   16.1680 C   0  0  0  0  0  0  0  0  0  0  0  0
    4.0630   19.4650   16.5500 C   0  0  0  0  0  0  0  0  0  0  0  0
    1.8890   16.8870   15.0250 N   0  0  0  0  0  0  0  0  0  0  0  0
    3.8360   19.2960   15.3530 O   0  0  0  0  0  0  0  0  0  0  0  0
    5.2200   20.1960   17.0740 C   0  0  0  0  0  0  0  0  0  0  0  0
    3.5180   16.0510   16.3290 O   0  0  0  0  0  0  0  0  0  0  0  0
    2.1840   16.0730   13.8550 C   0  0  1  0  0  0  0  0  0  0  0  0
    1.2880   14.8390   13.7790 C   0  0  0  0  0  0  0  0  0  0  0  0
    1.9330   16.8050   12.5340 C   0  0  0  0  0  0  0  0  0  0  0  0
    5.7240   19.8680   18.3470 C   0  0  0  0  0  0  0  0  0  0  0  0
    1.1270   14.5580   12.2860 C   0  0  0  0  0  0  0  0  0  0  0  0
    5.8850   21.2090   16.3450 C   0  0  0  0  0  0  0  0  0  0  0  0
    1.4490   15.8090   11.5180 N   0  3  2  0  0  0  0  0  0  0  0  0
    6.8590   20.4960   18.8360 C   0  0  0  0  0  0  0  0  0  0  0  0
    5.4200   21.6270   15.1300 O   0  0  0  0  0  0  0  0  0  0  0  0
    2.4000   15.5850   10.3700 C   0  0  0  0  0  0  0  0  0  0  0  0
    7.5280   21.4570   18.0730 C   0  0  0  0  0  0  0  0  0  0  0  0
    8.6760   22.0250   18.5410 O   0  0  0  0  0  0  0  0  0  0  0  0
    7.3120   20.1570   20.0800 O   0  0  0  0  0  0  0  0  0  0  0  0
    7.0370   21.8310   16.8290 C   0  0  0  0  0  0  0  0  0  0  0  0
    3.8310   15.1590   10.7400 C   0  0  0  0  0  0  0  0  0  0  0  0
    4.6890   14.8650    9.5060 C   0  0  0  0  0  0  0  0  0  0  0  0
    6.1090   14.4610    9.9080 C   0  0  0  0  0  0  0  0  0  0  0  0
    3.1340   16.1700   21.4820 H   0  0  0  0  0  0  0  0  0  0  0  0
    0.8510   15.3890   21.8040 H   0  0  0  0  0  0  0  0  0  0  0  0
    3.7580   17.3050   19.4280 H   0  0  0  0  0  0  0  0  0  0  0  0
   -0.8240   15.6980   20.0330 H   0  0  0  0  0  0  0  0  0  0  0  0
   -0.2040   16.8240   17.9560 H   0  0  0  0  0  0  0  0  0  0  0  0
    1.3080   18.3770   16.8850 H   0  0  0  0  0  0  0  0  0  0  0  0
    3.3230   19.1740   18.4600 H   0  0  0  0  0  0  0  0  0  0  0  0
    1.1480   17.5670   14.9420 H   0  0  0  0  0  0  0  0  0  0  0  0
    3.2290   15.7560   13.8520 H   0  0  0  0  0  0  0  0  0  0  0  0
    1.7400   13.9910   14.2890 H   0  0  0  0  0  0  0  0  0  0  0  0
    0.3080   15.0580   14.2040 H   0  0  0  0  0  0  0  0  0  0  0  0
    1.1940   17.5750   12.7070 H   0  0  0  0  0  0  0  0  0  0  0  0
    2.8250   17.3380   12.2320 H   0  0  0  0  0  0  0  0  0  0  0  0
    5.2520   19.1290   18.9400 H   0  0  0  0  0  0  0  0  0  0  0  0
    1.7910   13.7460   12.0190 H   0  0  0  0  0  0  0  0  0  0  0  0
    0.1340   14.1770   12.0840 H   0  0  0  0  0  0  0  0  0  0  0  0
    0.5820   16.1640   11.1360 H   0  0  0  0  0  0  0  0  0  0  0  0
    5.9100   22.4140   14.8210 H   0  0  0  0  0  0  0  0  0  0  0  0
    2.0030   14.8430    9.6900 H   0  0  0  0  0  0  0  0  0  0  0  0
    2.4740   16.4750    9.7580 H   0  0  0  0  0  0  0  0  0  0  0  0
    8.9240   21.6190   19.3960 H   0  0  0  0  0  0  0  0  0  0  0  0
    6.7970   19.4100   20.4400 H   0  0  0  0  0  0  0  0  0  0  0  0
    7.5330   22.5750   16.2600 H   0  0  0  0  0  0  0  0  0  0  0  0
    4.2990   15.9600   11.3100 H   0  0  0  0  0  0  0  0  0  0  0  0
    3.7900   14.2630   11.3600 H   0  0  0  0  0  0  0  0  0  0  0  0
    4.2370   14.0510    8.9380 H   0  0  0  0  0  0  0  0  0  0  0  0
    4.7380   15.7520    8.8720 H   0  0  0  0  0  0  0  0  0  0  0  0
    6.6690   14.1990    9.0130 H   0  0  0  0  0  0  0  0  0  0  0  0
    6.6060   15.2920   10.4090 H   0  0  0  0  0  0  0  0  0  0  0  0
    6.0810   13.5970   10.5730 H   0  0  0  0  0  0  0  0  0  0  0  0
  1  2  2  0  0  0  0
  1  3  1  0  0  0  0
  1 32  1  0  0  0  0
  2  4  1  0  0  0  0
  2 33  1  0  0  0  0
  3  6  2  0  0  0  0
  3 34  1  0  0  0  0
  4  5  2  0  0  0  0
  4 35  1  0  0  0  0
  5  6  1  0  0  0  0
  5 36  1  0  0  0  0
  6  7  1  0  0  0  0
  7  8  1  0  0  0  0
  7  9  1  0  0  0  0
  7 37  1  0  0  0  0
  8 10  1  0  0  0  0
  8 38  1  0  0  0  0
  9 11  1  0  0  0  0
  9 14  2  0  0  0  0
 10 12  2  0  0  0  0
 10 13  1  0  0  0  0
 11 15  1  0  0  0  0
 11 39  1  0  0  0  0
 13 18  1  0  0  0  0
 13 20  2  0  0  0  0
 15 16  1  0  0  0  0
 15 17  1  0  0  0  0
 15 40  1  0  0  0  0
 16 19  1  0  0  0  0
 16 41  1  0  0  0  0
 16 42  1  0  0  0  0
 17 21  1  0  0  0  0
 17 43  1  0  0  0  0
 17 44  1  0  0  0  0
 18 22  2  0  0  0  0
 18 45  1  0  0  0  0
 19 21  1  0  0  0  0
 19 46  1  0  0  0  0
 19 47  1  0  0  0  0
 20 23  1  0  0  0  0
 20 28  1  0  0  0  0
 21 24  1  0  0  0  0
 21 48  1  0  0  0  0
 22 25  1  0  0  0  0
 22 27  1  0  0  0  0
 23 49  1  0  0  0  0
 24 29  1  0  0  0  0
 24 50  1  0  0  0  0
 24 51  1  0  0  0  0
 25 26  1  0  0  0  0
 25 28  2  0  0  0  0
 26 52  1  0  0  0  0
 27 53  1  0  0  0  0
 28 54  1  0  0  0  0
 29 30  1  0  0  0  0
 29 55  1  0  0  0  0
 29 56  1  0  0  0  0
 30 31  1  0  0  0  0
 30 57  1  0  0  0  0
 30 58  1  0  0  0  0
 31 59  1  0  0  0  0
 31 60  1  0  0  0  0
 31 61  1  0  0  0  0
M  CHG  1  21   1
M  END
> <rseq>
1

> <mseq>
272

> <S>
-7.357964

> <rmsd_refine>
1.660049

> <E_conf>
16.90837

> <E_score1>
-9.867989

> <E_refine>
-38.5336

> <E_score2>
-7.357964

>  <$File>
outputs/pdb_4j58_cleaned.pdb_2024_06_17__22_47_40_V2_BS398_MIN1_/SDF/sdf_db.sdf

> <Rec_index>
1

>  <PLIF_raw>
[[8,14,26,26,26,26,26,26],[1504,954,1651,1655,1659,1657,1653,1650],[101,62,112,112,112,112,112,112],[3,2,10,10,10,10,10,10],[0.5,2.2,2.3,2.3,2.3,2.3,2.3,2.3]]

> <FP:PLIF>
20 23 8 15 47

>  <PLIF_ligidx>
[14,14,8,[26,26,26,26,26,26],[26,26,26,26,26,26]]

$$$$
272
  MOE2022           3D

 56 58  0  0  1  0  0  0  0  0999 V2000
    7.0880   20.9790   19.4070 C   0  0  0  0  0  0  0  0  0  0  0  0
    6.2590   19.9060   19.1010 C   0  0  0  0  0  0  0  0  0  0  0  0
    4.9790   20.1420   18.6020 C   0  0  0  0  0  0  0  0  0  0  0  0
    4.2030   19.0390   18.2750 O   0  0  0  0  0  0  0  0  0  0  0  0
    3.0440   19.0410   17.3710 C   0  0  1  0  0  0  0  0  0  0  0  0
    4.5170   21.4500   18.4290 C   0  0  0  0  0  0  0  0  0  0  0  0
    6.6390   22.2840   19.2230 C   0  0  0  0  0  0  0  0  0  0  0  0
    5.3540   22.5180   18.7390 C   0  0  0  0  0  0  0  0  0  0  0  0
    3.4740   19.2100   15.9100 C   0  0  0  0  0  0  0  0  0  0  0  0
    4.3240   20.0560   15.6280 O   0  0  0  0  0  0  0  0  0  0  0  0
    2.1750   17.7930   17.6250 C   0  0  2  0  0  0  0  0  0  0  0  0
    2.8750   18.4850   14.9310 N   0  0  0  0  0  0  0  0  0  0  0  0
    1.0910   17.6410   16.5370 C   0  0  2  0  0  0  0  0  0  0  0  0
    1.8780   17.4230   15.2150 C   0  0  1  0  0  0  0  0  0  0  0  0
    1.6150   17.8570   18.9240 O   0  0  0  0  0  0  0  0  0  0  0  0
    3.2890   18.6410   13.5220 C   0  0  0  0  0  0  0  0  0  0  0  0
    0.2560   18.8660   16.4270 N   0  0  0  0  0  0  0  0  0  0  0  0
    0.1990   16.4160   16.8590 C   0  0  0  0  0  0  0  0  0  0  0  0
   -0.9800   16.3530   16.0760 O   0  0  0  0  0  0  0  0  0  0  0  0
    0.9840   17.2510   14.0680 O   0  0  0  0  0  0  0  0  0  0  0  0
    0.8710   15.9080   13.5050 C   0  0  0  0  0  0  0  0  0  0  0  0
    2.1780   15.3710   12.9600 C   0  0  0  0  0  0  0  0  0  0  0  0
    2.9370   14.7100   13.6460 O   0  0  0  0  0  0  0  0  0  0  0  0
    2.4990   15.6920   11.6580 N   0  0  0  0  0  0  0  0  0  0  0  0
    3.5830   15.1400   10.9270 C   0  0  0  0  0  0  0  0  0  0  0  0
    4.3270   15.9720   10.0900 C   0  0  0  0  0  0  0  0  0  0  0  0
    5.3790   15.4130    9.3680 C   0  0  0  0  0  0  0  0  0  0  0  0
    3.8740   13.7740   11.0230 C   0  0  0  0  0  0  0  0  0  0  0  0
    4.9430   13.2440   10.3080 C   0  0  0  0  0  0  0  0  0  0  0  0
    6.1100   16.1910    8.5230 O   0  0  0  0  0  0  0  0  0  0  0  0
    5.7030   14.0620    9.4770 C   0  0  0  0  0  0  0  0  0  0  0  0
    8.0670   20.8050   19.7730 H   0  0  0  0  0  0  0  0  0  0  0  0
    6.6050   18.9160   19.2360 H   0  0  0  0  0  0  0  0  0  0  0  0
    2.4330   19.8940   17.6310 H   0  0  0  0  0  0  0  0  0  0  0  0
    3.5430   21.6420   18.0620 H   0  0  0  0  0  0  0  0  0  0  0  0
    7.2760   23.0980   19.4510 H   0  0  0  0  0  0  0  0  0  0  0  0
    5.0140   23.5120   18.6010 H   0  0  0  0  0  0  0  0  0  0  0  0
    2.8320   16.9230   17.5880 H   0  0  0  0  0  0  0  0  0  0  0  0
    2.4270   16.4980   15.3250 H   0  0  0  0  0  0  0  0  0  0  0  0
    2.2470   18.2870   19.5080 H   0  0  0  0  0  0  0  0  0  0  0  0
    4.0070   19.4340   13.3690 H   0  0  0  0  0  0  0  0  0  0  0  0
    3.7380   17.7320   13.1480 H   0  0  0  0  0  0  0  0  0  0  0  0
    2.4470   18.8760   12.8860 H   0  0  0  0  0  0  0  0  0  0  0  0
    0.8400   19.6580   16.2000 H   0  0  0  0  0  0  0  0  0  0  0  0
   -0.4140   18.7350   15.6810 H   0  0  0  0  0  0  0  0  0  0  0  0
    0.7740   15.5080   16.7020 H   0  0  0  0  0  0  0  0  0  0  0  0
   -0.1120   16.4460   17.9030 H   0  0  0  0  0  0  0  0  0  0  0  0
   -1.5230   17.1160   16.2940 H   0  0  0  0  0  0  0  0  0  0  0  0
    0.4890   15.2420   14.2650 H   0  0  0  0  0  0  0  0  0  0  0  0
    0.1270   15.9480   12.7210 H   0  0  0  0  0  0  0  0  0  0  0  0
    1.8960   16.3780   11.1780 H   0  0  0  0  0  0  0  0  0  0  0  0
    4.0950   17.0020   10.0030 H   0  0  0  0  0  0  0  0  0  0  0  0
    3.2800   13.1420   11.6290 H   0  0  0  0  0  0  0  0  0  0  0  0
    5.1760   12.2140   10.3920 H   0  0  0  0  0  0  0  0  0  0  0  0
    5.8160   17.1220    8.5550 H   0  0  0  0  0  0  0  0  0  0  0  0
    6.5120   13.6590    8.9260 H   0  0  0  0  0  0  0  0  0  0  0  0
  1  2  1  0  0  0  0
  1  7  2  0  0  0  0
  1 32  1  0  0  0  0
  2  3  2  0  0  0  0
  2 33  1  0  0  0  0
  3  4  1  0  0  0  0
  3  6  1  0  0  0  0
  4  5  1  0  0  0  0
  5  9  1  0  0  0  0
  5 11  1  0  0  0  0
  5 34  1  0  0  0  0
  6  8  2  0  0  0  0
  6 35  1  0  0  0  0
  7  8  1  0  0  0  0
  7 36  1  0  0  0  0
  8 37  1  0  0  0  0
  9 10  2  0  0  0  0
  9 12  1  0  0  0  0
 11 13  1  0  0  0  0
 11 15  1  0  0  0  0
 11 38  1  0  0  0  0
 12 14  1  0  0  0  0
 12 16  1  0  0  0  0
 13 14  1  0  0  0  0
 13 17  1  0  0  0  0
 13 18  1  0  0  0  0
 14 20  1  0  0  0  0
 14 39  1  0  0  0  0
 15 40  1  0  0  0  0
 16 41  1  0  0  0  0
 16 42  1  0  0  0  0
 16 43  1  0  0  0  0
 17 44  1  0  0  0  0
 17 45  1  0  0  0  0
 18 19  1  0  0  0  0
 18 46  1  0  0  0  0
 18 47  1  0  0  0  0
 19 48  1  0  0  0  0
 20 21  1  0  0  0  0
 21 22  1  0  0  0  0
 21 49  1  0  0  0  0
 21 50  1  0  0  0  0
 22 23  2  0  0  0  0
 22 24  1  0  0  0  0
 24 25  1  0  0  0  0
 24 51  1  0  0  0  0
 25 26  2  0  0  0  0
 25 28  1  0  0  0  0
 26 27  1  0  0  0  0
 26 52  1  0  0  0  0
 27 30  1  0  0  0  0
 27 31  2  0  0  0  0
 28 29  2  0  0  0  0
 28 53  1  0  0  0  0
 29 31  1  0  0  0  0
 29 54  1  0  0  0  0
 30 55  1  0  0  0  0
 31 56  1  0  0  0  0
M  END
> <rseq>
1

> <mseq>
273

> <S>
-6.265979

> <rmsd_refine>
1.382703

> <E_conf>
69.21347

> <E_score1>
-11.70388

> <E_refine>
-36.06484

> <E_score2>
-6.265979

>  <$File>
outputs/pdb_4j58_cleaned.pdb_2024_06_17__22_47_40_V2_BS398_MIN1_/SDF/sdf_db.sdf

> <Rec_index>
1

>  <PLIF_raw>
[[25,26,27,31,29,28],[823,823,823,823,823,823],[54,54,54,54,54,54],[10,10,10,10,10,10],[0.5,0.5,0.5,0.5,0.5,0.5]]

> <FP:PLIF>
2

>  <PLIF_ligidx>
[[25,26,27,31,29,28]]

$$$$
273
  MOE2022           3D

 60 63  0  0  1  0  0  0  0  0999 V2000
    2.4980   16.4920   20.2570 C   0  0  0  0  0  0  0  0  0  0  0  0
    1.2390   15.9050   20.2610 C   0  0  0  0  0  0  0  0  0  0  0  0
    2.8380   17.4030   19.2630 C   0  0  0  0  0  0  0  0  0  0  0  0
    0.3200   16.2290   19.2680 C   0  0  0  0  0  0  0  0  0  0  0  0
    0.6570   17.1490   18.2790 C   0  0  0  0  0  0  0  0  0  0  0  0
    1.9160   17.7510   18.2720 C   0  0  0  0  0  0  0  0  0  0  0  0
    2.2750   18.7530   17.1840 C   0  0  1  0  0  0  0  0  0  0  0  0
    3.0500   19.8680   17.7400 N   0  0  0  0  0  0  0  0  0  0  0  0
    2.9690   18.0500   16.0220 C   0  0  0  0  0  0  0  0  0  0  0  0
    3.5560   20.8910   17.0400 C   0  0  0  0  0  0  0  0  0  0  0  0
    2.2150   17.7800   14.9470 N   0  0  0  0  0  0  0  0  0  0  0  0
    3.2640   21.0730   15.8580 O   0  0  0  0  0  0  0  0  0  0  0  0
    4.4600   21.8990   17.8030 C   0  0  2  0  0  0  0  0  0  0  0  0
    4.1410   17.6880   16.0970 O   0  0  0  0  0  0  0  0  0  0  0  0
    2.7190   17.0750   13.7780 C   0  0  1  0  0  0  0  0  0  0  0  0
    5.4340   21.1900   18.7930 C   0  0  0  0  0  0  0  0  0  0  0  0
    3.5550   22.8560   18.6070 C   0  0  0  0  0  0  0  0  0  0  0  0
    5.3190   22.7500   16.8130 C   0  0  1  0  0  0  0  0  0  0  0  0
    6.2220   23.6050   17.5140 O   0  0  0  0  0  0  0  0  0  0  0  0
    6.2690   21.8770   15.9870 C   0  0  0  0  0  0  0  0  0  0  0  0
    6.6440   20.5500   18.0790 C   0  0  1  0  0  0  0  0  0  0  0  0
    7.2830   21.5350   17.0690 C   0  0  2  0  0  0  0  0  0  0  0  0
    7.6770   20.0610   19.1040 C   0  0  0  0  0  0  0  0  0  0  0  0
    1.6230   16.4000   12.9500 C   0  0  0  0  0  0  0  0  0  0  0  0
    3.3900   17.9820   12.8800 O   0  0  0  0  0  0  0  0  0  0  0  0
    2.0890   16.5420   11.5080 C   0  0  0  0  0  0  0  0  0  0  0  0
    2.9270   17.8280   11.5050 C   0  0  2  0  0  0  0  0  0  0  0  0
    7.4840   22.9500   17.6250 C   0  0  0  0  0  0  0  0  0  0  0  0
    4.0610   17.8790   10.4890 C   0  0  0  0  0  0  0  0  0  0  0  0
    4.1610   18.9130    9.7940 O   0  0  0  0  0  0  0  0  0  0  0  0
    4.8260   16.8920   10.3920 O   0  5  0  0  0  0  0  0  0  0  0  0
    3.2000   16.2420   21.0100 H   0  0  0  0  0  0  0  0  0  0  0  0
    0.9820   15.2110   21.0160 H   0  0  0  0  0  0  0  0  0  0  0  0
    3.8040   17.8380   19.2690 H   0  0  0  0  0  0  0  0  0  0  0  0
   -0.6380   15.7780   19.2640 H   0  0  0  0  0  0  0  0  0  0  0  0
   -0.0510   17.3910   17.5280 H   0  0  0  0  0  0  0  0  0  0  0  0
    1.3490   19.1720   16.8130 H   0  0  0  0  0  0  0  0  0  0  0  0
    3.2400   19.8280   18.7300 H   0  0  0  0  0  0  0  0  0  0  0  0
    1.2620   18.1050   14.9180 H   0  0  0  0  0  0  0  0  0  0  0  0
    3.4500   16.3330   14.0710 H   0  0  0  0  0  0  0  0  0  0  0  0
    5.8100   21.9260   19.5040 H   0  0  0  0  0  0  0  0  0  0  0  0
    4.9170   20.4350   19.3850 H   0  0  0  0  0  0  0  0  0  0  0  0
    2.8770   23.3760   17.9300 H   0  0  0  0  0  0  0  0  0  0  0  0
    2.9620   22.2990   19.3310 H   0  0  0  0  0  0  0  0  0  0  0  0
    4.1520   23.5970   19.1400 H   0  0  0  0  0  0  0  0  0  0  0  0
    4.6690   23.3320   16.1590 H   0  0  0  0  0  0  0  0  0  0  0  0
    5.7900   20.9910   15.5750 H   0  0  0  0  0  0  0  0  0  0  0  0
    6.7280   22.4630   15.1890 H   0  0  0  0  0  0  0  0  0  0  0  0
    6.2870   19.6800   17.5270 H   0  0  0  0  0  0  0  0  0  0  0  0
    8.2010   21.1290   16.6400 H   0  0  0  0  0  0  0  0  0  0  0  0
    8.5100   19.5820   18.5880 H   0  0  0  0  0  0  0  0  0  0  0  0
    8.0550   20.8980   19.6900 H   0  0  0  0  0  0  0  0  0  0  0  0
    7.2150   19.3360   19.7730 H   0  0  0  0  0  0  0  0  0  0  0  0
    1.4900   15.3560   13.2350 H   0  0  0  0  0  0  0  0  0  0  0  0
    0.6860   16.9440   13.0720 H   0  0  0  0  0  0  0  0  0  0  0  0
    2.7200   15.6880   11.2590 H   0  0  0  0  0  0  0  0  0  0  0  0
    1.2530   16.6020   10.8110 H   0  0  0  0  0  0  0  0  0  0  0  0
    2.2680   18.6680   11.3310 H   0  0  0  0  0  0  0  0  0  0  0  0
    8.2120   23.4780   17.0090 H   0  0  0  0  0  0  0  0  0  0  0  0
    7.8280   22.9320   18.6590 H   0  0  0  0  0  0  0  0  0  0  0  0
  1  2  2  0  0  0  0
  1  3  1  0  0  0  0
  1 32  1  0  0  0  0
  2  4  1  0  0  0  0
  2 33  1  0  0  0  0
  3  6  2  0  0  0  0
  3 34  1  0  0  0  0
  4  5  2  0  0  0  0
  4 35  1  0  0  0  0
  5  6  1  0  0  0  0
  5 36  1  0  0  0  0
  6  7  1  0  0  0  0
  7  8  1  0  0  0  0
  7  9  1  0  0  0  0
  7 37  1  0  0  0  0
  8 10  1  0  0  0  0
  8 38  1  0  0  0  0
  9 11  1  0  0  0  0
  9 14  2  0  0  0  0
 10 12  2  0  0  0  0
 10 13  1  0  0  0  0
 11 15  1  0  0  0  0
 11 39  1  0  0  0  0
 13 16  1  0  0  0  0
 13 17  1  0  0  0  0
 13 18  1  0  0  0  0
 15 24  1  0  0  0  0
 15 25  1  0  0  0  0
 15 40  1  0  0  0  0
 16 21  1  0  0  0  0
 16 41  1  0  0  0  0
 16 42  1  0  0  0  0
 17 43  1  0  0  0  0
 17 44  1  0  0  0  0
 17 45  1  0  0  0  0
 18 19  1  0  0  0  0
 18 20  1  0  0  0  0
 18 46  1  0  0  0  0
 19 28  1  0  0  0  0
 20 22  1  0  0  0  0
 20 47  1  0  0  0  0
 20 48  1  0  0  0  0
 21 22  1  0  0  0  0
 21 23  1  0  0  0  0
 21 49  1  0  0  0  0
 22 28  1  0  0  0  0
 22 50  1  0  0  0  0
 23 51  1  0  0  0  0
 23 52  1  0  0  0  0
 23 53  1  0  0  0  0
 24 26  1  0  0  0  0
 24 54  1  0  0  0  0
 24 55  1  0  0  0  0
 25 27  1  0  0  0  0
 26 27  1  0  0  0  0
 26 56  1  0  0  0  0
 26 57  1  0  0  0  0
 27 29  1  0  0  0  0
 27 58  1  0  0  0  0
 28 59  1  0  0  0  0
 28 60  1  0  0  0  0
 29 30  2  0  0  0  0
 29 31  1  0  0  0  0
M  CHG  1  31  -1
M  END
> <rseq>
1

> <mseq>
274

> <S>
-6.76256

> <rmsd_refine>
1.275033

> <E_conf>
-29.10052

> <E_score1>
-11.65068

> <E_refine>
-39.18541

> <E_score2>
-6.76256

>  <$File>
outputs/pdb_4j58_cleaned.pdb_2024_06_17__22_47_40_V2_BS398_MIN1_/SDF/sdf_db.sdf

> <Rec_index>
1

>  <PLIF_raw>
[[8,14,31,30,31,31],[1504,954,823,829,823,829],[101,62,54,54,54,54],[3,2,2,7,7,7],[2.3,2.4,2.4,2.007047135,5.38120762,1.750942225]]

> <FP:PLIF>
6 19 1 16 20 23 8 10

>  <PLIF_ligidx>
[31,31,[30,31,31],31,14,14,8,8]

$$$$
274
  MOE2022           3D

 56 58  0  0  1  0  0  0  0  0999 V2000
    6.5210   20.1080   19.2350 C   0  0  0  0  0  0  0  0  0  0  0  0
    7.5630   20.9230   18.8670 C   0  0  0  0  0  0  0  0  0  0  0  0
    5.4540   19.8660   18.3440 C   0  0  0  0  0  0  0  0  0  0  0  0
    4.3790   19.0190   18.6910 C   0  0  0  0  0  0  0  0  0  0  0  0
    3.3810   18.7460   17.7830 C   0  0  0  0  0  0  0  0  0  0  0  0
    7.5720   21.5470   17.6060 C   0  0  0  0  0  0  0  0  0  0  0  0
    8.7270   22.4580   17.2680 C   0  0  0  0  0  0  0  0  0  0  0  0
    6.5250   21.3500   16.7100 C   0  0  0  0  0  0  0  0  0  0  0  0
    3.4770   19.3830   16.4990 C   0  0  0  0  0  0  0  0  0  0  0  0
    6.4920   22.0450   15.4250 C   0  0  0  0  0  0  0  0  0  0  0  0
    2.2930   17.8300   18.1560 C   0  0  0  0  0  0  0  0  0  0  0  0
    7.3120   21.7210   14.5190 O   0  0  0  0  0  0  0  0  0  0  0  0
    5.6530   22.9640   15.2390 O   0  5  0  0  0  0  0  0  0  0  0  0
    2.4950   16.9930   19.0800 O   0  5  0  0  0  0  0  0  0  0  0  0
    1.1720   17.8680   17.5770 O   0  0  0  0  0  0  0  0  0  0  0  0
    2.5140   19.1400   15.5360 N   0  0  0  0  0  0  0  0  0  0  0  0
    5.4630   20.4680   17.0640 C   0  0  0  0  0  0  0  0  0  0  0  0
    2.1890   20.1020   14.4770 C   0  0  0  0  0  0  0  0  0  0  0  0
    4.4650   20.1890   16.1720 N   0  0  0  0  0  0  0  0  0  0  0  0
    1.8840   19.4280   13.1350 C   0  0  1  0  0  0  0  0  0  0  0  0
    3.1050   18.6480   12.6170 C   0  0  0  0  0  0  0  0  0  0  0  0
    0.7540   18.3870   13.2260 C   0  0  0  0  0  0  0  0  0  0  0  0
    1.4530   17.0320   13.1550 C   0  0  0  0  0  0  0  0  0  0  0  0
    2.7220   17.2160   12.3970 N   0  3  1  0  0  0  0  0  0  0  0  0
    2.5740   16.8570   10.9490 C   0  0  0  0  0  0  0  0  0  0  0  0
    3.8670   16.7390   10.1720 C   0  0  0  0  0  0  0  0  0  0  0  0
    4.6960   15.6680   10.1830 C   0  0  0  0  0  0  0  0  0  0  0  0
    4.4730   14.4670   11.0000 C   0  0  0  0  0  0  0  0  0  0  0  0
    3.5110   14.3020   11.7380 O   0  0  0  0  0  0  0  0  0  0  0  0
    5.9420   15.6930    9.3150 C   0  0  0  0  0  0  0  0  0  0  0  0
    5.3910   13.4610   10.9700 N   0  0  0  0  0  0  0  0  0  0  0  0
    6.5200   19.6530   20.1890 H   0  0  0  0  0  0  0  0  0  0  0  0
    8.3640   21.0900   19.5400 H   0  0  0  0  0  0  0  0  0  0  0  0
    4.3530   18.5910   19.6580 H   0  0  0  0  0  0  0  0  0  0  0  0
    9.1830   22.1700   16.3210 H   0  0  0  0  0  0  0  0  0  0  0  0
    8.3690   23.4830   17.1880 H   0  0  0  0  0  0  0  0  0  0  0  0
    9.4980   22.4170   18.0350 H   0  0  0  0  0  0  0  0  0  0  0  0
    1.7050   18.5940   15.8810 H   0  0  0  0  0  0  0  0  0  0  0  0
    1.3160   20.6780   14.7870 H   0  0  0  0  0  0  0  0  0  0  0  0
    3.0030   20.8090   14.3160 H   0  0  0  0  0  0  0  0  0  0  0  0
    1.6280   20.1920   12.4000 H   0  0  0  0  0  0  0  0  0  0  0  0
    3.4920   19.1210   11.7250 H   0  0  0  0  0  0  0  0  0  0  0  0
    3.9050   18.7370   13.3410 H   0  0  0  0  0  0  0  0  0  0  0  0
    0.1650   18.4830   14.1390 H   0  0  0  0  0  0  0  0  0  0  0  0
    0.1030   18.4890   12.3570 H   0  0  0  0  0  0  0  0  0  0  0  0
    1.6520   16.7030   14.1670 H   0  0  0  0  0  0  0  0  0  0  0  0
    0.7980   16.2800   12.7370 H   0  0  0  0  0  0  0  0  0  0  0  0
    3.4220   16.6080   12.8000 H   0  0  0  0  0  0  0  0  0  0  0  0
    2.0420   15.9210   10.8440 H   0  0  0  0  0  0  0  0  0  0  0  0
    1.9330   17.5620   10.4380 H   0  0  0  0  0  0  0  0  0  0  0  0
    4.0900   17.5890    9.5780 H   0  0  0  0  0  0  0  0  0  0  0  0
    6.0140   14.8090    8.6960 H   0  0  0  0  0  0  0  0  0  0  0  0
    5.9520   16.5360    8.6390 H   0  0  0  0  0  0  0  0  0  0  0  0
    6.8320   15.7480    9.9240 H   0  0  0  0  0  0  0  0  0  0  0  0
    5.2740   12.6460   11.5950 H   0  0  0  0  0  0  0  0  0  0  0  0
    6.2450   13.5330   10.3990 H   0  0  0  0  0  0  0  0  0  0  0  0
  1  2  1  0  0  0  0
  1  3  2  0  0  0  0
  1 32  1  0  0  0  0
  2  6  2  0  0  0  0
  2 33  1  0  0  0  0
  3  4  1  0  0  0  0
  3 17  1  0  0  0  0
  4  5  2  0  0  0  0
  4 34  1  0  0  0  0
  5  9  1  0  0  0  0
  5 11  1  0  0  0  0
  6  7  1  0  0  0  0
  6  8  1  0  0  0  0
  7 35  1  0  0  0  0
  7 36  1  0  0  0  0
  7 37  1  0  0  0  0
  8 10  1  0  0  0  0
  8 17  2  0  0  0  0
  9 16  1  0  0  0  0
  9 19  2  0  0  0  0
 10 12  2  0  0  0  0
 10 13  1  0  0  0  0
 11 14  1  0  0  0  0
 11 15  2  0  0  0  0
 16 18  1  0  0  0  0
 16 38  1  0  0  0  0
 17 19  1  0  0  0  0
 18 20  1  0  0  0  0
 18 39  1  0  0  0  0
 18 40  1  0  0  0  0
 20 21  1  0  0  0  0
 20 22  1  0  0  0  0
 20 41  1  0  0  0  0
 21 24  1  0  0  0  0
 21 42  1  0  0  0  0
 21 43  1  0  0  0  0
 22 23  1  0  0  0  0
 22 44  1  0  0  0  0
 22 45  1  0  0  0  0
 23 24  1  0  0  0  0
 23 46  1  0  0  0  0
 23 47  1  0  0  0  0
 24 25  1  0  0  0  0
 24 48  1  0  0  0  0
 25 26  1  0  0  0  0
 25 49  1  0  0  0  0
 25 50  1  0  0  0  0
 26 27  2  0  0  0  0
 26 51  1  0  0  0  0
 27 28  1  0  0  0  0
 27 30  1  0  0  0  0
 28 29  2  0  0  0  0
 28 31  1  0  0  0  0
 30 52  1  0  0  0  0
 30 53  1  0  0  0  0
 30 54  1  0  0  0  0
 31 55  1  0  0  0  0
 31 56  1  0  0  0  0
M  CHG  1  13  -1
M  CHG  1  14  -1
M  CHG  1  24   1
M  END
> <rseq>
1

> <mseq>
275

> <S>
-6.331943

> <rmsd_refine>
1.037254

> <E_conf>
-274.0195

> <E_score1>
-10.43783

> <E_refine>
-37.49877

> <E_score2>
-6.331943

>  <$File>
outputs/pdb_4j58_cleaned.pdb_2024_06_17__22_47_40_V2_BS398_MIN1_/SDF/sdf_db.sdf

> <Rec_index>
1

>  <PLIF_raw>
[[31,12,12,12,2,2,2,2,2,2],[1056,826,826,829,1651,1655,1659,1657,1653,1650],[70,54,54,54,112,112,112,112,112,112],[3,2,7,7,10,10,10,10,10,10],[2.7,5,5.387639628,2.030245728,0.5,0.5,0.5,0.5,0.5,0.5]]

> <FP:PLIF>
6 19 1 16 3 4 15

>  <PLIF_ligidx>
[12,12,[12,12],12,31,31,[2,2,2,2,2,2]]

$$$$
275
  MOE2022           3D

 54 56  0  0  1  0  0  0  0  0999 V2000
    1.8620   16.3020   20.4010 C   0  0  0  0  0  0  0  0  0  0  0  0
    0.5400   15.8750   20.4090 C   0  0  0  0  0  0  0  0  0  0  0  0
    2.4220   16.8100   19.2340 C   0  0  0  0  0  0  0  0  0  0  0  0
   -0.2180   15.9430   19.2450 C   0  0  0  0  0  0  0  0  0  0  0  0
    0.3400   16.4550   18.0790 C   0  0  0  0  0  0  0  0  0  0  0  0
    1.6610   16.9020   18.0630 C   0  0  0  0  0  0  0  0  0  0  0  0
    2.2380   17.4670   16.7710 C   0  0  1  0  0  0  0  0  0  0  0  0
    3.2540   18.4980   17.0180 N   0  0  0  0  0  0  0  0  0  0  0  0
    2.8000   16.3760   15.8730 C   0  0  0  0  0  0  0  0  0  0  0  0
    2.9750   19.7570   17.4890 C   0  0  0  0  0  0  0  0  0  0  0  0
    2.2240   16.2090   14.6720 N   0  0  0  0  0  0  0  0  0  0  0  0
    1.8240   20.1760   17.3860 O   0  0  0  0  0  0  0  0  0  0  0  0
    4.0820   20.5180   18.0720 C   0  0  0  0  0  0  0  0  0  0  0  0
    3.7850   15.7220   16.2120 O   0  0  0  0  0  0  0  0  0  0  0  0
    2.7610   15.3370   13.6340 C   0  0  1  0  0  0  0  0  0  0  0  0
    1.7710   14.2820   13.1480 C   0  0  0  0  0  0  0  0  0  0  0  0
    3.0540   16.0860   12.3430 C   0  0  0  0  0  0  0  0  0  0  0  0
    5.1560   19.8410   18.6780 C   0  0  0  0  0  0  0  0  0  0  0  0
    2.3110   13.9270   11.7550 C   0  0  0  0  0  0  0  0  0  0  0  0
    4.1240   21.9290   18.0480 C   0  0  0  0  0  0  0  0  0  0  0  0
    3.2020   15.0200   11.3680 N   0  0  0  0  0  0  0  0  0  0  0  0
    6.2400   20.5440   19.1840 C   0  0  0  0  0  0  0  0  0  0  0  0
    3.0950   22.6510   17.5160 O   0  0  0  0  0  0  0  0  0  0  0  0
    4.2180   14.9420   10.4820 C   0  0  0  0  0  0  0  0  0  0  0  0
    6.2700   21.9410   19.1190 C   0  0  0  0  0  0  0  0  0  0  0  0
    7.3310   22.6430   19.6090 O   0  0  0  0  0  0  0  0  0  0  0  0
    5.2080   22.6410   18.5580 C   0  0  0  0  0  0  0  0  0  0  0  0
    5.0390   15.8530   10.3680 O   0  0  0  0  0  0  0  0  0  0  0  0
    4.3590   13.6890    9.6320 C   0  0  0  0  0  0  0  0  0  0  0  0
    4.9900   12.5970   10.3430 O   0  0  0  0  0  0  0  0  0  0  0  0
    7.2730   19.8320   19.7450 O   0  0  0  0  0  0  0  0  0  0  0  0
    2.4450   16.2440   21.2840 H   0  0  0  0  0  0  0  0  0  0  0  0
    0.1090   15.5020   21.2980 H   0  0  0  0  0  0  0  0  0  0  0  0
    3.4290   17.1310   19.2460 H   0  0  0  0  0  0  0  0  0  0  0  0
   -1.2240   15.6110   19.2480 H   0  0  0  0  0  0  0  0  0  0  0  0
   -0.2480   16.5070   17.1990 H   0  0  0  0  0  0  0  0  0  0  0  0
    1.4230   17.9400   16.2390 H   0  0  0  0  0  0  0  0  0  0  0  0
    4.2230   18.1600   17.1030 H   0  0  0  0  0  0  0  0  0  0  0  0
    1.4140   16.7630   14.4360 H   0  0  0  0  0  0  0  0  0  0  0  0
    3.6710   14.8350   13.9640 H   0  0  0  0  0  0  0  0  0  0  0  0
    1.7710   13.4170   13.8070 H   0  0  0  0  0  0  0  0  0  0  0  0
    0.7710   14.7090   13.0600 H   0  0  0  0  0  0  0  0  0  0  0  0
    2.2090   16.7190   12.0680 H   0  0  0  0  0  0  0  0  0  0  0  0
    3.9500   16.6920   12.4460 H   0  0  0  0  0  0  0  0  0  0  0  0
    5.1450   18.7880   18.7590 H   0  0  0  0  0  0  0  0  0  0  0  0
    2.8640   12.9900   11.8150 H   0  0  0  0  0  0  0  0  0  0  0  0
    1.4900   13.8260   11.0450 H   0  0  0  0  0  0  0  0  0  0  0  0
    2.3520   22.0550   17.2810 H   0  0  0  0  0  0  0  0  0  0  0  0
    8.0510   22.0550   19.9090 H   0  0  0  0  0  0  0  0  0  0  0  0
    5.2230   23.7000   18.5150 H   0  0  0  0  0  0  0  0  0  0  0  0
    3.3930   13.3450    9.2890 H   0  0  0  0  0  0  0  0  0  0  0  0
    4.9520   13.8990    8.7530 H   0  0  0  0  0  0  0  0  0  0  0  0
    5.8340   12.8880   10.7280 H   0  0  0  0  0  0  0  0  0  0  0  0
    8.0140   20.4070   20.0170 H   0  0  0  0  0  0  0  0  0  0  0  0
  1  2  2  0  0  0  0
  1  3  1  0  0  0  0
  1 32  1  0  0  0  0
  2  4  1  0  0  0  0
  2 33  1  0  0  0  0
  3  6  2  0  0  0  0
  3 34  1  0  0  0  0
  4  5  2  0  0  0  0
  4 35  1  0  0  0  0
  5  6  1  0  0  0  0
  5 36  1  0  0  0  0
  6  7  1  0  0  0  0
  7  8  1  0  0  0  0
  7  9  1  0  0  0  0
  7 37  1  0  0  0  0
  8 10  1  0  0  0  0
  8 38  1  0  0  0  0
  9 11  1  0  0  0  0
  9 14  2  0  0  0  0
 10 12  2  0  0  0  0
 10 13  1  0  0  0  0
 11 15  1  0  0  0  0
 11 39  1  0  0  0  0
 13 18  1  0  0  0  0
 13 20  2  0  0  0  0
 15 16  1  0  0  0  0
 15 17  1  0  0  0  0
 15 40  1  0  0  0  0
 16 19  1  0  0  0  0
 16 41  1  0  0  0  0
 16 42  1  0  0  0  0
 17 21  1  0  0  0  0
 17 43  1  0  0  0  0
 17 44  1  0  0  0  0
 18 22  2  0  0  0  0
 18 45  1  0  0  0  0
 19 21  1  0  0  0  0
 19 46  1  0  0  0  0
 19 47  1  0  0  0  0
 20 23  1  0  0  0  0
 20 27  1  0  0  0  0
 21 24  1  0  0  0  0
 22 25  1  0  0  0  0
 22 31  1  0  0  0  0
 23 48  1  0  0  0  0
 24 28  2  0  0  0  0
 24 29  1  0  0  0  0
 25 26  1  0  0  0  0
 25 27  2  0  0  0  0
 26 49  1  0  0  0  0
 27 50  1  0  0  0  0
 29 30  1  0  0  0  0
 29 51  1  0  0  0  0
 29 52  1  0  0  0  0
 30 53  1  0  0  0  0
 31 54  1  0  0  0  0
M  END
> <rseq>
1

> <mseq>
276

> <S>
-7.077418

> <rmsd_refine>
1.385218

> <E_conf>
29.99201

> <E_score1>
-9.493906

> <E_refine>
-40.04023

> <E_score2>
-7.077418

>  <$File>
outputs/pdb_4j58_cleaned.pdb_2024_06_17__22_47_40_V2_BS398_MIN1_/SDF/sdf_db.sdf

> <Rec_index>
1

>  <PLIF_raw>
[[14,28,1,3,6,5,4,2],[954,823,1519,1519,1519,1519,1519,1519],[62,54,102,102,102,102,102,102],[2,2,10,10,10,10,10,10],[1.5,2.5,0.6,0.6,0.6,0.6,0.6,0.6]]

> <FP:PLIF>
6 19 20 23 22

>  <PLIF_ligidx>
[28,28,14,14,[1,3,6,5,4,2]]

$$$$
300
  MOE2022           3D

 51 53  0  0  1  0  0  0  0  0999 V2000
    2.6790   16.5770   20.4490 C   0  0  0  0  0  0  0  0  0  0  0  0
    1.3970   16.0630   20.5920 C   0  0  0  0  0  0  0  0  0  0  0  0
    3.0090   17.3340   19.3290 C   0  0  0  0  0  0  0  0  0  0  0  0
    0.4450   16.3040   19.6090 C   0  0  0  0  0  0  0  0  0  0  0  0
    0.7790   17.0530   18.4840 C   0  0  0  0  0  0  0  0  0  0  0  0
    2.0670   17.5690   18.3240 C   0  0  0  0  0  0  0  0  0  0  0  0
    2.3970   18.3390   17.0430 C   0  0  1  0  0  0  0  0  0  0  0  0
    3.6910   19.0520   17.0920 N   0  0  0  0  0  0  0  0  0  0  0  0
    2.3040   17.3860   15.8240 C   0  0  0  0  0  0  0  0  0  0  0  0
    3.8360   20.3400   17.5530 C   0  0  0  0  0  0  0  0  0  0  0  0
    2.6550   17.8610   14.4440 N   0  0  0  0  0  0  0  0  0  0  0  0
    2.5150   19.1860   14.0230 C   0  0  0  0  0  0  0  0  0  0  0  0
    1.9060   19.9860   14.7480 O   0  0  0  0  0  0  0  0  0  0  0  0
    3.0320   16.9180   13.4700 C   0  0  0  0  0  0  0  0  0  0  0  0
    5.1770   20.8860   17.6410 C   0  0  0  0  0  0  0  0  0  0  0  0
    2.9710   15.6090   13.8610 O   0  0  0  0  0  0  0  0  0  0  0  0
    3.4320   17.3000   12.2070 C   0  0  0  0  0  0  0  0  0  0  0  0
    3.8450   16.3110   11.2050 C   0  0  0  0  0  0  0  0  0  0  0  0
    3.3440   15.1490   11.2020 O   0  0  0  0  0  0  0  0  0  0  0  0
    2.8480   20.9750   17.9080 O   0  0  0  0  0  0  0  0  0  0  0  0
    3.0830   19.5670   12.7320 C   0  0  0  0  0  0  0  0  0  0  0  0
    4.7630   16.5910   10.3810 O   0  5  0  0  0  0  0  0  0  0  0  0
    3.1890   20.8120   12.4490 O   0  0  0  0  0  0  0  0  0  0  0  0
    3.5000   18.6550   11.8700 N   0  5  0  0  0  0  0  0  0  0  0  0
    5.7850   21.0380   19.0290 C   0  0  1  0  0  0  0  0  0  0  0  0
    5.8500   21.3720   16.5610 C   0  0  0  0  0  0  0  0  0  0  0  0
    5.2030   21.4430   15.1910 C   0  0  0  0  0  0  0  0  0  0  0  0
    5.2330   20.0970   19.9830 O   0  0  0  0  0  0  0  0  0  0  0  0
    7.3320   20.9990   19.0230 C   0  0  2  0  0  0  0  0  0  0  0  0
    7.9030   21.7500   17.8400 C   0  0  0  0  0  0  0  0  0  0  0  0
    7.2000   21.8960   16.6990 C   0  0  0  0  0  0  0  0  0  0  0  0
    7.8100   19.6430   18.9960 O   0  0  0  0  0  0  0  0  0  0  0  0
    3.4060   16.3900   21.1950 H   0  0  0  0  0  0  0  0  0  0  0  0
    1.1490   15.4920   21.4470 H   0  0  0  0  0  0  0  0  0  0  0  0
    3.9850   17.7310   19.2520 H   0  0  0  0  0  0  0  0  0  0  0  0
   -0.5350   15.9160   19.7130 H   0  0  0  0  0  0  0  0  0  0  0  0
    0.0440   17.2270   17.7410 H   0  0  0  0  0  0  0  0  0  0  0  0
    1.6110   19.0730   16.9320 H   0  0  0  0  0  0  0  0  0  0  0  0
    4.5330   18.5380   16.7930 H   0  0  0  0  0  0  0  0  0  0  0  0
    2.9340   16.5420   16.0730 H   0  0  0  0  0  0  0  0  0  0  0  0
    1.3060   16.9710   15.7890 H   0  0  0  0  0  0  0  0  0  0  0  0
    3.1480   15.0500   13.0730 H   0  0  0  0  0  0  0  0  0  0  0  0
    5.4930   22.0190   19.3760 H   0  0  0  0  0  0  0  0  0  0  0  0
    5.9010   21.7290   14.4170 H   0  0  0  0  0  0  0  0  0  0  0  0
    4.7810   20.4930   14.9030 H   0  0  0  0  0  0  0  0  0  0  0  0
    4.3970   22.1640   15.1770 H   0  0  0  0  0  0  0  0  0  0  0  0
    4.2620   20.0750   19.8920 H   0  0  0  0  0  0  0  0  0  0  0  0
    7.6930   21.4380   19.9430 H   0  0  0  0  0  0  0  0  0  0  0  0
    8.8920   22.1190   17.9350 H   0  0  0  0  0  0  0  0  0  0  0  0
    7.6290   22.3920   15.8660 H   0  0  0  0  0  0  0  0  0  0  0  0
    7.3330   19.1180   19.6580 H   0  0  0  0  0  0  0  0  0  0  0  0
  1  2  2  0  0  0  0
  1  3  1  0  0  0  0
  1 33  1  0  0  0  0
  2  4  1  0  0  0  0
  2 34  1  0  0  0  0
  3  6  2  0  0  0  0
  3 35  1  0  0  0  0
  4  5  2  0  0  0  0
  4 36  1  0  0  0  0
  5  6  1  0  0  0  0
  5 37  1  0  0  0  0
  6  7  1  0  0  0  0
  7  8  1  0  0  0  0
  7  9  1  0  0  0  0
  7 38  1  0  0  0  0
  8 10  1  0  0  0  0
  8 39  1  0  0  0  0
  9 11  1  0  0  0  0
  9 40  1  0  0  0  0
  9 41  1  0  0  0  0
 10 15  1  0  0  0  0
 10 20  2  0  0  0  0
 11 12  1  0  0  0  0
 11 14  1  0  0  0  0
 12 13  2  0  0  0  0
 12 21  1  0  0  0  0
 14 16  1  0  0  0  0
 14 17  2  0  0  0  0
 15 25  1  0  0  0  0
 15 26  2  0  0  0  0
 16 42  1  0  0  0  0
 17 18  1  0  0  0  0
 17 24  1  0  0  0  0
 18 19  2  0  0  0  0
 18 22  1  0  0  0  0
 21 23  2  0  0  0  0
 21 24  1  0  0  0  0
 25 28  1  0  0  0  0
 25 29  1  0  0  0  0
 25 43  1  0  0  0  0
 26 27  1  0  0  0  0
 26 31  1  0  0  0  0
 27 44  1  0  0  0  0
 27 45  1  0  0  0  0
 27 46  1  0  0  0  0
 28 47  1  0  0  0  0
 29 30  1  0  0  0  0
 29 32  1  0  0  0  0
 29 48  1  0  0  0  0
 30 31  2  0  0  0  0
 30 49  1  0  0  0  0
 31 50  1  0  0  0  0
 32 51  1  0  0  0  0
M  CHG  1  22  -1
M  CHG  1  24  -1
M  END
> <rseq>
1

> <mseq>
301

> <S>
-6.641908

> <rmsd_refine>
1.627306

> <E_conf>
-44.25242

> <E_score1>
-12.17696

> <E_refine>
-34.89119

> <E_score2>
-6.641908

>  <$File>
outputs/pdb_4j58_cleaned.pdb_2024_06_17__22_47_40_V2_BS398_MIN1_/SDF/sdf_db.sdf

> <Rec_index>
1

>  <PLIF_raw>
[[28,22,28,22,22,23,24,24],[1504,823,1499,823,829,829,823,829],[101,54,101,54,54,54,54,54],[3,2,4,7,7,7,7,7],[1.9,2.5,0.6,4.712375906,0.9690666578,0.7642307196,2.270534461,2.600892112]]

> <FP:PLIF>
6 19 1 16 8 10 11

>  <PLIF_ligidx>
[22,22,[22,22,23,24,24],22,28,28,28]

$$$$
301
  MOE2022           3D

 49 51  0  0  1  0  0  0  0  0999 V2000
    2.3030   16.4570   20.3080 C   0  0  0  0  0  0  0  0  0  0  0  0
    1.0280   15.9350   20.4820 C   0  0  0  0  0  0  0  0  0  0  0  0
    2.6600   17.0360   19.0950 C   0  0  0  0  0  0  0  0  0  0  0  0
    0.1120   15.9900   19.4390 C   0  0  0  0  0  0  0  0  0  0  0  0
    0.4690   16.5700   18.2250 C   0  0  0  0  0  0  0  0  0  0  0  0
    1.7480   17.0980   18.0360 C   0  0  0  0  0  0  0  0  0  0  0  0
    2.0940   17.7290   16.6830 C   0  0  1  0  0  0  0  0  0  0  0  0
    3.3660   18.4720   16.6900 N   0  0  0  0  0  0  0  0  0  0  0  0
    2.0430   16.6810   15.5390 C   0  0  0  0  0  0  0  0  0  0  0  0
    3.4920   19.7490   17.1840 C   0  0  0  0  0  0  0  0  0  0  0  0
    2.4760   17.0750   14.1510 N   0  0  0  0  0  0  0  0  0  0  0  0
    2.2790   18.3550   13.6260 C   0  0  0  0  0  0  0  0  0  0  0  0
    1.5440   19.1450   14.2360 O   0  0  0  0  0  0  0  0  0  0  0  0
    3.0070   16.1060   13.2800 C   0  0  0  0  0  0  0  0  0  0  0  0
    4.8250   20.3340   17.2080 C   0  0  0  0  0  0  0  0  0  0  0  0
    2.9870   14.8220   13.7450 O   0  0  0  0  0  0  0  0  0  0  0  0
    3.5130   16.4420   12.0430 C   0  0  0  0  0  0  0  0  0  0  0  0
    4.1030   15.4330   11.1580 C   0  0  0  0  0  0  0  0  0  0  0  0
    3.6440   14.2550   11.1330 O   0  0  0  0  0  0  0  0  0  0  0  0
    2.5040   20.3330   17.6150 O   0  0  0  0  0  0  0  0  0  0  0  0
    2.9390   18.7000   12.3690 C   0  0  0  0  0  0  0  0  0  0  0  0
    5.1210   15.7220   10.4620 O   0  5  0  0  0  0  0  0  0  0  0  0
    2.9660   19.9270   12.0020 O   0  0  0  0  0  0  0  0  0  0  0  0
    3.5150   17.7750   11.6200 N   0  5  0  0  0  0  0  0  0  0  0  0
    5.6230   20.2110   18.3540 C   0  0  0  0  0  0  0  0  0  0  0  0
    5.3420   21.0240   16.0940 C   0  0  0  0  0  0  0  0  0  0  0  0
    4.4960   21.2270   14.8510 C   0  0  0  0  0  0  0  0  0  0  0  0
    5.1080   19.6460   19.4940 O   0  0  0  0  0  0  0  0  0  0  0  0
    6.9370   20.6810   18.3560 C   0  0  0  0  0  0  0  0  0  0  0  0
    7.4540   21.3370   17.2460 C   0  0  0  0  0  0  0  0  0  0  0  0
    6.6480   21.5190   16.1240 C   0  0  0  0  0  0  0  0  0  0  0  0
    7.7290   20.5040   19.4540 O   0  0  0  0  0  0  0  0  0  0  0  0
    3.0050   16.4140   21.1010 H   0  0  0  0  0  0  0  0  0  0  0  0
    0.7580   15.5000   21.4080 H   0  0  0  0  0  0  0  0  0  0  0  0
    3.6320   17.4330   18.9920 H   0  0  0  0  0  0  0  0  0  0  0  0
   -0.8620   15.5930   19.5670 H   0  0  0  0  0  0  0  0  0  0  0  0
   -0.2420   16.6110   17.4410 H   0  0  0  0  0  0  0  0  0  0  0  0
    1.3030   18.4390   16.4900 H   0  0  0  0  0  0  0  0  0  0  0  0
    4.1920   18.0090   16.2840 H   0  0  0  0  0  0  0  0  0  0  0  0
    2.6480   15.8520   15.8780 H   0  0  0  0  0  0  0  0  0  0  0  0
    1.0420   16.2770   15.4820 H   0  0  0  0  0  0  0  0  0  0  0  0
    3.2980   14.2270   13.0260 H   0  0  0  0  0  0  0  0  0  0  0  0
    4.9920   21.8740   14.1280 H   0  0  0  0  0  0  0  0  0  0  0  0
    4.3030   20.2700   14.3700 H   0  0  0  0  0  0  0  0  0  0  0  0
    3.5370   21.6810   15.1060 H   0  0  0  0  0  0  0  0  0  0  0  0
    4.1410   19.5110   19.3960 H   0  0  0  0  0  0  0  0  0  0  0  0
    8.4500   21.7000   17.2550 H   0  0  0  0  0  0  0  0  0  0  0  0
    7.0380   22.0370   15.2850 H   0  0  0  0  0  0  0  0  0  0  0  0
    7.2380   20.0060   20.1350 H   0  0  0  0  0  0  0  0  0  0  0  0
  1  2  2  0  0  0  0
  1  3  1  0  0  0  0
  1 33  1  0  0  0  0
  2  4  1  0  0  0  0
  2 34  1  0  0  0  0
  3  6  2  0  0  0  0
  3 35  1  0  0  0  0
  4  5  2  0  0  0  0
  4 36  1  0  0  0  0
  5  6  1  0  0  0  0
  5 37  1  0  0  0  0
  6  7  1  0  0  0  0
  7  8  1  0  0  0  0
  7  9  1  0  0  0  0
  7 38  1  0  0  0  0
  8 10  1  0  0  0  0
  8 39  1  0  0  0  0
  9 11  1  0  0  0  0
  9 40  1  0  0  0  0
  9 41  1  0  0  0  0
 10 15  1  0  0  0  0
 10 20  2  0  0  0  0
 11 12  1  0  0  0  0
 11 14  1  0  0  0  0
 12 13  2  0  0  0  0
 12 21  1  0  0  0  0
 14 16  1  0  0  0  0
 14 17  2  0  0  0  0
 15 25  2  0  0  0  0
 15 26  1  0  0  0  0
 16 42  1  0  0  0  0
 17 18  1  0  0  0  0
 17 24  1  0  0  0  0
 18 19  2  0  0  0  0
 18 22  1  0  0  0  0
 21 23  2  0  0  0  0
 21 24  1  0  0  0  0
 25 28  1  0  0  0  0
 25 29  1  0  0  0  0
 26 27  1  0  0  0  0
 26 31  2  0  0  0  0
 27 43  1  0  0  0  0
 27 44  1  0  0  0  0
 27 45  1  0  0  0  0
 28 46  1  0  0  0  0
 29 30  2  0  0  0  0
 29 32  1  0  0  0  0
 30 31  1  0  0  0  0
 30 47  1  0  0  0  0
 31 48  1  0  0  0  0
 32 49  1  0  0  0  0
M  CHG  1  22  -1
M  CHG  1  24  -1
M  END
> <rseq>
1

> <mseq>
302

> <S>
-6.376694

> <rmsd_refine>
1.457271

> <E_conf>
-40.35534

> <E_score1>
-13.2094

> <E_refine>
-35.24158

> <E_score2>
-6.376694

>  <$File>
outputs/pdb_4j58_cleaned.pdb_2024_06_17__22_47_40_V2_BS398_MIN1_/SDF/sdf_db.sdf

> <Rec_index>
1

>  <PLIF_raw>
[[28,22,22,23,24,24,1,3,6,5,4,2],[1504,823,823,829,823,829,1519,1519,1519,1519,1519,1519],[101,54,54,54,54,54,102,102,102,102,102,102],[3,2,7,7,7,7,10,10,10,10,10,10],[1.1,3.8,4.315406047,0.8615120701,3.279717501,1.444401677,0.6,0.6,0.6,0.6,0.6,0.6]]

> <FP:PLIF>
6 19 1 16 8 22

>  <PLIF_ligidx>
[22,22,[22,23,24,24],22,28,[1,3,6,5,4,2]]

$$$$
302
  MOE2022           3D

 59 61  0  0  1  0  0  0  0  0999 V2000
    2.4620   16.2490   20.6710 C   0  0  0  0  0  0  0  0  0  0  0  0
    1.2410   15.6640   20.9690 C   0  0  0  0  0  0  0  0  0  0  0  0
    2.6170   16.9650   19.4920 C   0  0  0  0  0  0  0  0  0  0  0  0
    0.1750   15.7840   20.0810 C   0  0  0  0  0  0  0  0  0  0  0  0
    0.3310   16.5050   18.9000 C   0  0  0  0  0  0  0  0  0  0  0  0
    1.5500   17.1140   18.6030 C   0  0  0  0  0  0  0  0  0  0  0  0
    1.7240   17.9390   17.3370 C   0  0  1  0  0  0  0  0  0  0  0  0
    2.3800   19.2030   17.6960 N   0  0  0  0  0  0  0  0  0  0  0  0
    2.4630   17.1360   16.2710 C   0  0  0  0  0  0  0  0  0  0  0  0
    3.1340   19.9850   16.8620 C   0  0  0  0  0  0  0  0  0  0  0  0
    1.7400   16.6460   15.2530 N   0  0  0  0  0  0  0  0  0  0  0  0
    2.8790   20.0040   15.6590 O   0  0  0  0  0  0  0  0  0  0  0  0
    4.2070   20.7470   17.4870 C   0  0  0  0  0  0  0  0  0  0  0  0
    3.6700   16.9160   16.3550 O   0  0  0  0  0  0  0  0  0  0  0  0
    2.3050   15.7480   14.2540 C   0  0  1  0  0  0  0  0  0  0  0  0
    1.2780   14.7760   13.6870 C   0  0  0  0  0  0  0  0  0  0  0  0
    2.7680   16.4640   12.9900 C   0  0  0  0  0  0  0  0  0  0  0  0
    5.0130   20.1370   18.4650 C   0  0  0  0  0  0  0  0  0  0  0  0
    1.9760   14.3030   12.4090 C   0  0  0  0  0  0  0  0  0  0  0  0
    4.4680   22.0910   17.1500 C   0  0  0  0  0  0  0  0  0  0  0  0
    2.8590   15.3940   12.0070 N   0  0  0  0  0  0  0  0  0  0  0  0
    6.0190   20.8600   19.0910 C   0  0  0  0  0  0  0  0  0  0  0  0
    3.7260   22.7210   16.1930 O   0  0  0  0  0  0  0  0  0  0  0  0
    3.7780   15.3540   11.0230 C   0  0  0  0  0  0  0  0  0  0  0  0
    6.2470   22.1960   18.7510 C   0  0  0  0  0  0  0  0  0  0  0  0
    7.2380   22.8880   19.3720 O   0  0  0  0  0  0  0  0  0  0  0  0
    4.4800   16.3280   10.7500 O   0  0  0  0  0  0  0  0  0  0  0  0
    6.7910   20.2510   20.0500 O   0  0  0  0  0  0  0  0  0  0  0  0
    3.9560   14.0410   10.2440 C   0  0  0  0  0  0  0  0  0  0  0  0
    5.1490   14.0510    9.2740 C   0  0  0  0  0  0  0  0  0  0  0  0
    5.4750   22.8220   17.7790 C   0  0  0  0  0  0  0  0  0  0  0  0
    5.3000   12.6940    8.5810 C   0  0  0  0  0  0  0  0  0  0  0  0
    3.2750   16.1470   21.3410 H   0  0  0  0  0  0  0  0  0  0  0  0
    1.1350   15.1270   21.8710 H   0  0  0  0  0  0  0  0  0  0  0  0
    3.5560   17.4010   19.2770 H   0  0  0  0  0  0  0  0  0  0  0  0
   -0.7570   15.3320   20.3040 H   0  0  0  0  0  0  0  0  0  0  0  0
   -0.4850   16.5950   18.2300 H   0  0  0  0  0  0  0  0  0  0  0  0
    0.7400   18.1840   16.9580 H   0  0  0  0  0  0  0  0  0  0  0  0
    2.5250   19.3290   18.7110 H   0  0  0  0  0  0  0  0  0  0  0  0
    0.7530   16.8470   15.1980 H   0  0  0  0  0  0  0  0  0  0  0  0
    3.1380   15.1770   14.6690 H   0  0  0  0  0  0  0  0  0  0  0  0
    1.0840   13.9540   14.3720 H   0  0  0  0  0  0  0  0  0  0  0  0
    0.3550   15.3000   13.4340 H   0  0  0  0  0  0  0  0  0  0  0  0
    2.0250   17.1970   12.6700 H   0  0  0  0  0  0  0  0  0  0  0  0
    3.7280   16.9500   13.1610 H   0  0  0  0  0  0  0  0  0  0  0  0
    4.8600   19.1230   18.7250 H   0  0  0  0  0  0  0  0  0  0  0  0
    2.5620   13.4120   12.6310 H   0  0  0  0  0  0  0  0  0  0  0  0
    1.2420   14.0840   11.6320 H   0  0  0  0  0  0  0  0  0  0  0  0
    3.0930   22.0970   15.7810 H   0  0  0  0  0  0  0  0  0  0  0  0
    7.7490   22.2830   19.9480 H   0  0  0  0  0  0  0  0  0  0  0  0
    6.5850   19.2980   20.1010 H   0  0  0  0  0  0  0  0  0  0  0  0
    4.1060   13.2300   10.9580 H   0  0  0  0  0  0  0  0  0  0  0  0
    3.0410   13.8400    9.6860 H   0  0  0  0  0  0  0  0  0  0  0  0
    4.9990   14.8240    8.5190 H   0  0  0  0  0  0  0  0  0  0  0  0
    6.0650   14.2700    9.8270 H   0  0  0  0  0  0  0  0  0  0  0  0
    5.6520   23.8330   17.5170 H   0  0  0  0  0  0  0  0  0  0  0  0
    5.4820   11.9150    9.3230 H   0  0  0  0  0  0  0  0  0  0  0  0
    4.3930   12.4590    8.0220 H   0  0  0  0  0  0  0  0  0  0  0  0
    6.1420   12.7330    7.8920 H   0  0  0  0  0  0  0  0  0  0  0  0
  1  2  2  0  0  0  0
  1  3  1  0  0  0  0
  1 33  1  0  0  0  0
  2  4  1  0  0  0  0
  2 34  1  0  0  0  0
  3  6  2  0  0  0  0
  3 35  1  0  0  0  0
  4  5  2  0  0  0  0
  4 36  1  0  0  0  0
  5  6  1  0  0  0  0
  5 37  1  0  0  0  0
  6  7  1  0  0  0  0
  7  8  1  0  0  0  0
  7  9  1  0  0  0  0
  7 38  1  0  0  0  0
  8 10  1  0  0  0  0
  8 39  1  0  0  0  0
  9 11  1  0  0  0  0
  9 14  2  0  0  0  0
 10 12  2  0  0  0  0
 10 13  1  0  0  0  0
 11 15  1  0  0  0  0
 11 40  1  0  0  0  0
 13 18  1  0  0  0  0
 13 20  2  0  0  0  0
 15 16  1  0  0  0  0
 15 17  1  0  0  0  0
 15 41  1  0  0  0  0
 16 19  1  0  0  0  0
 16 42  1  0  0  0  0
 16 43  1  0  0  0  0
 17 21  1  0  0  0  0
 17 44  1  0  0  0  0
 17 45  1  0  0  0  0
 18 22  2  0  0  0  0
 18 46  1  0  0  0  0
 19 21  1  0  0  0  0
 19 47  1  0  0  0  0
 19 48  1  0  0  0  0
 20 23  1  0  0  0  0
 20 31  1  0  0  0  0
 21 24  1  0  0  0  0
 22 25  1  0  0  0  0
 22 28  1  0  0  0  0
 23 49  1  0  0  0  0
 24 27  2  0  0  0  0
 24 29  1  0  0  0  0
 25 26  1  0  0  0  0
 25 31  2  0  0  0  0
 26 50  1  0  0  0  0
 28 51  1  0  0  0  0
 29 30  1  0  0  0  0
 29 52  1  0  0  0  0
 29 53  1  0  0  0  0
 30 32  1  0  0  0  0
 30 54  1  0  0  0  0
 30 55  1  0  0  0  0
 31 56  1  0  0  0  0
 32 57  1  0  0  0  0
 32 58  1  0  0  0  0
 32 59  1  0  0  0  0
M  END
> <rseq>
1

> <mseq>
303

> <S>
-7.042387

> <rmsd_refine>
1.097661

> <E_conf>
-11.3253

> <E_score1>
-9.699919

> <E_refine>
-42.57964

> <E_score2>
-7.042387

>  <$File>
outputs/pdb_4j58_cleaned.pdb_2024_06_17__22_47_40_V2_BS398_MIN1_/SDF/sdf_db.sdf

> <Rec_index>
1

>  <PLIF_raw>
[[8,14,27,26,26,26,26,26,26],[1504,954,823,1655,1659,1657,1653,1650,1651],[101,62,54,112,112,112,112,112,112],[3,2,2,10,10,10,10,10,10],[2.1,3.8,1.1,1.1,1.1,1.1,1.1,1.1,1.1]]

> <FP:PLIF>
6 20 23 8 10 15 47

>  <PLIF_ligidx>
[27,14,14,8,8,[26,26,26,26,26,26],[26,26,26,26,26,26]]

$$$$
303
  MOE2022           3D

 57 60  0  0  1  0  0  0  0  0999 V2000
    4.3120   18.7410   18.8740 O   0  0  0  0  0  0  0  0  0  0  0  0
    3.3090   18.3290   18.2920 C   0  0  0  0  0  0  0  0  0  0  0  0
    2.3760   17.3910   18.8990 C   0  0  0  0  0  0  0  0  0  0  0  0
    3.0640   18.7700   16.9890 N   0  0  0  0  0  0  0  0  0  0  0  0
    1.1930   17.0450   18.2320 C   0  0  0  0  0  0  0  0  0  0  0  0
    1.9160   18.3290   16.2590 C   0  0  0  0  0  0  0  0  0  0  0  0
    0.2450   16.1860   18.8100 C   0  0  0  0  0  0  0  0  0  0  0  0
    0.9730   17.5630   16.9550 N   0  0  0  0  0  0  0  0  0  0  0  0
    1.7440   18.6240   14.9410 C   0  0  0  0  0  0  0  0  0  0  0  0
    2.6190   16.8160   20.1530 C   0  0  0  0  0  0  0  0  0  0  0  0
    2.7240   19.3940   14.2310 C   0  0  0  0  0  0  0  0  0  0  0  0
   -1.0320   15.8120   18.0800 C   0  0  0  0  0  0  0  0  0  0  0  0
    4.0640   19.6570   16.3200 C   0  0  2  0  0  0  0  0  0  0  0  0
    4.2220   20.9260   17.0170 O   0  0  0  0  0  0  0  0  0  0  0  0
    2.4730   19.5630   12.8790 O   0  0  0  0  0  0  0  0  0  0  0  0
    3.8160   19.9060   14.8410 C   0  0  0  0  0  0  0  0  0  0  0  0
    3.3070   20.1760   11.8640 C   0  0  0  0  0  0  0  0  0  0  0  0
    3.0990   21.8480   17.0480 C   0  0  0  0  0  0  0  0  0  0  0  0
    3.4290   23.1230   16.2610 C   0  0  0  0  0  0  0  0  0  0  0  0
    3.4140   19.3040   10.6100 C   0  0  0  0  0  0  0  0  0  0  0  0
    3.8430   24.1580   17.3090 C   0  0  1  0  0  0  0  0  0  0  0  0
    4.1240   18.0730   10.8720 O   0  0  0  0  0  0  0  0  0  0  0  0
    4.2630   17.1500    9.7510 C   0  0  0  0  0  0  0  0  0  0  0  0
    2.8920   23.8320   18.4660 C   0  0  1  0  0  0  0  0  0  0  0  0
    5.0420   15.9030   10.1190 C   0  0  0  0  0  0  0  0  0  0  0  0
    5.2050   23.9770   17.6550 O   0  0  0  0  0  0  0  0  0  0  0  0
    4.3950   14.9150   10.5270 O   0  5  0  0  0  0  0  0  0  0  0  0
    2.8310   22.3060   18.4870 C   0  0  0  0  0  0  0  0  0  0  0  0
    6.2870   15.9370   10.0020 O   0  0  0  0  0  0  0  0  0  0  0  0
    3.3000   24.3760   19.7100 O   0  0  0  0  0  0  0  0  0  0  0  0
    0.5010   15.6660   20.0730 C   0  0  0  0  0  0  0  0  0  0  0  0
    1.6880   15.9710   20.7400 C   0  0  0  0  0  0  0  0  0  0  0  0
    0.1200   17.2690   16.4550 H   0  0  0  0  0  0  0  0  0  0  0  0
    0.8920   18.2770   14.4160 H   0  0  0  0  0  0  0  0  0  0  0  0
    3.5210   17.0270   20.6630 H   0  0  0  0  0  0  0  0  0  0  0  0
   -1.6040   16.7060   17.8280 H   0  0  0  0  0  0  0  0  0  0  0  0
   -0.7970   15.2750   17.1600 H   0  0  0  0  0  0  0  0  0  0  0  0
   -1.6640   15.1690   18.6930 H   0  0  0  0  0  0  0  0  0  0  0  0
    5.0260   19.1680   16.3930 H   0  0  0  0  0  0  0  0  0  0  0  0
    4.5340   20.4910   14.3330 H   0  0  0  0  0  0  0  0  0  0  0  0
    2.8640   21.1340   11.5930 H   0  0  0  0  0  0  0  0  0  0  0  0
    4.3070   20.3510   12.2500 H   0  0  0  0  0  0  0  0  0  0  0  0
    2.2210   21.3550   16.6280 H   0  0  0  0  0  0  0  0  0  0  0  0
    4.2200   22.9520   15.5290 H   0  0  0  0  0  0  0  0  0  0  0  0
    2.5300   23.4700   15.7510 H   0  0  0  0  0  0  0  0  0  0  0  0
    2.4130   19.0630   10.2510 H   0  0  0  0  0  0  0  0  0  0  0  0
    3.9530   19.8530    9.8380 H   0  0  0  0  0  0  0  0  0  0  0  0
    3.6790   25.1720   16.9410 H   0  0  0  0  0  0  0  0  0  0  0  0
    3.2700   16.8820    9.4180 H   0  0  0  0  0  0  0  0  0  0  0  0
    4.7620   17.6740    8.9480 H   0  0  0  0  0  0  0  0  0  0  0  0
    1.9020   24.2170   18.2150 H   0  0  0  0  0  0  0  0  0  0  0  0
    5.3970   24.5360   18.4100 H   0  0  0  0  0  0  0  0  0  0  0  0
    1.8450   21.9740   18.8120 H   0  0  0  0  0  0  0  0  0  0  0  0
    3.6040   21.9120   19.1490 H   0  0  0  0  0  0  0  0  0  0  0  0
    2.6570   24.1080   20.3730 H   0  0  0  0  0  0  0  0  0  0  0  0
   -0.2070   15.0290   20.5320 H   0  0  0  0  0  0  0  0  0  0  0  0
    1.8800   15.5570   21.6960 H   0  0  0  0  0  0  0  0  0  0  0  0
  1  2  2  0  0  0  0
  2  3  1  0  0  0  0
  2  4  1  0  0  0  0
  3  5  1  0  0  0  0
  3 10  2  0  0  0  0
  4  6  1  0  0  0  0
  4 13  1  0  0  0  0
  5  7  2  0  0  0  0
  5  8  1  0  0  0  0
  6  8  1  0  0  0  0
  6  9  2  0  0  0  0
  7 12  1  0  0  0  0
  7 31  1  0  0  0  0
  8 33  1  0  0  0  0
  9 11  1  0  0  0  0
  9 34  1  0  0  0  0
 10 32  1  0  0  0  0
 10 35  1  0  0  0  0
 11 15  1  0  0  0  0
 11 16  2  0  0  0  0
 12 36  1  0  0  0  0
 12 37  1  0  0  0  0
 12 38  1  0  0  0  0
 13 14  1  0  0  0  0
 13 16  1  0  0  0  0
 13 39  1  0  0  0  0
 14 18  1  0  0  0  0
 15 17  1  0  0  0  0
 16 40  1  0  0  0  0
 17 20  1  0  0  0  0
 17 41  1  0  0  0  0
 17 42  1  0  0  0  0
 18 19  1  0  0  0  0
 18 28  1  0  0  0  0
 18 43  1  0  0  0  0
 19 21  1  0  0  0  0
 19 44  1  0  0  0  0
 19 45  1  0  0  0  0
 20 22  1  0  0  0  0
 20 46  1  0  0  0  0
 20 47  1  0  0  0  0
 21 24  1  0  0  0  0
 21 26  1  0  0  0  0
 21 48  1  0  0  0  0
 22 23  1  0  0  0  0
 23 25  1  0  0  0  0
 23 49  1  0  0  0  0
 23 50  1  0  0  0  0
 24 28  1  0  0  0  0
 24 30  1  0  0  0  0
 24 51  1  0  0  0  0
 25 27  1  0  0  0  0
 25 29  2  0  0  0  0
 26 52  1  0  0  0  0
 28 53  1  0  0  0  0
 28 54  1  0  0  0  0
 30 55  1  0  0  0  0
 31 32  2  0  0  0  0
 31 56  1  0  0  0  0
 32 57  1  0  0  0  0
M  CHG  1  27  -1
M  END
> <rseq>
1

> <mseq>
304

> <S>
-6.061931

> <rmsd_refine>
1.755507

> <E_conf>
-135.4907

> <E_score1>
-12.5496

> <E_refine>
-32.81899

> <E_score2>
-6.061931

>  <$File>
outputs/pdb_4j58_cleaned.pdb_2024_06_17__22_47_40_V2_BS398_MIN1_/SDF/sdf_db.sdf

> <Rec_index>
1

>  <PLIF_raw>
[[29,30,27,29,2,4,6,8,5,3,3,5,7,31,32,10],[823,1872,823,823,954,954,954,954,954,954,1519,1519,1519,1519,1519,1519],[54,125,54,54,62,62,62,62,62,62,102,102,102,102,102,102],[2,2,7,7,10,10,10,10,10,10,10,10,10,10,10,10],[2,1.3,0.9750455711,4.35199799,1.8,1.8,1.8,1.8,1.8,1.8,0.5,0.5,0.5,0.5,0.5,0.5]]

> <FP:PLIF>
6 19 1 16 21 30 22 29

>  <PLIF_ligidx>
[29,29,[27,29],29,[2,4,6,8,5,3],[2,4,6,8,5,3],[3,5,7,31,32,10],30]

$$$$
304
  MOE2022           3D

 57 59  0  0  1  0  0  0  0  0999 V2000
    1.5430   16.1100   20.4260 C   0  0  0  0  0  0  0  0  0  0  0  0
    0.2040   15.7700   20.2720 C   0  0  0  0  0  0  0  0  0  0  0  0
    2.2420   16.6810   19.3670 C   0  0  0  0  0  0  0  0  0  0  0  0
   -0.4320   15.9880   19.0560 C   0  0  0  0  0  0  0  0  0  0  0  0
    0.2630   16.5680   18.0000 C   0  0  0  0  0  0  0  0  0  0  0  0
    1.6020   16.9300   18.1480 C   0  0  0  0  0  0  0  0  0  0  0  0
    2.3280   17.5660   16.9710 C   0  0  1  0  0  0  0  0  0  0  0  0
    3.3730   18.4990   17.4150 N   0  0  0  0  0  0  0  0  0  0  0  0
    2.8510   16.5110   16.0000 C   0  0  0  0  0  0  0  0  0  0  0  0
    4.0590   19.3650   16.5960 C   0  0  0  0  0  0  0  0  0  0  0  0
    2.3460   16.5290   14.7560 N   0  0  0  0  0  0  0  0  0  0  0  0
    3.6900   19.4440   15.4240 O   0  0  0  0  0  0  0  0  0  0  0  0
    5.1980   20.1090   17.1550 C   0  0  0  0  0  0  0  0  0  0  0  0
    3.7080   15.6950   16.3320 O   0  0  0  0  0  0  0  0  0  0  0  0
    2.7390   15.6050   13.6970 C   0  0  1  0  0  0  0  0  0  0  0  0
    1.6640   14.5570   13.4140 C   0  0  0  0  0  0  0  0  0  0  0  0
    2.9690   16.2910   12.3450 C   0  0  0  0  0  0  0  0  0  0  0  0
    5.6480   19.8470   18.4650 C   0  0  0  0  0  0  0  0  0  0  0  0
    1.8430   14.2140   11.9350 C   0  0  0  0  0  0  0  0  0  0  0  0
    5.9100   21.0770   16.4060 C   0  0  0  0  0  0  0  0  0  0  0  0
    2.4550   15.4000   11.2500 N   0  3  2  0  0  0  0  0  0  0  0  0
    6.7900   20.4660   18.9570 C   0  0  0  0  0  0  0  0  0  0  0  0
    5.4900   21.4640   15.1640 O   0  0  0  0  0  0  0  0  0  0  0  0
    3.4910   15.0730   10.2040 C   0  0  0  0  0  0  0  0  0  0  0  0
    7.5200   21.3560   18.1610 C   0  0  0  0  0  0  0  0  0  0  0  0
    8.6860   21.9180   18.6070 O   0  0  0  0  0  0  0  0  0  0  0  0
    4.6220   14.1330   10.6310 C   0  0  0  0  0  0  0  0  0  0  0  0
    7.0690   21.6830   16.8890 C   0  0  0  0  0  0  0  0  0  0  0  0
    7.1750   20.1860   20.2400 O   0  0  0  0  0  0  0  0  0  0  0  0
    5.9050   14.4510    9.8850 C   0  0  0  0  0  0  0  0  0  0  0  0
    6.2990   13.6150    9.0460 O   0  5  0  0  0  0  0  0  0  0  0  0
    6.4450   15.5460   10.1570 O   0  0  0  0  0  0  0  0  0  0  0  0
    2.0330   15.9360   21.3500 H   0  0  0  0  0  0  0  0  0  0  0  0
   -0.3350   15.3470   21.0770 H   0  0  0  0  0  0  0  0  0  0  0  0
    3.2640   16.9240   19.4990 H   0  0  0  0  0  0  0  0  0  0  0  0
   -1.4500   15.7200   18.9340 H   0  0  0  0  0  0  0  0  0  0  0  0
   -0.2340   16.7360   17.0800 H   0  0  0  0  0  0  0  0  0  0  0  0
    1.5940   18.1610   16.4420 H   0  0  0  0  0  0  0  0  0  0  0  0
    3.6440   18.4410   18.4070 H   0  0  0  0  0  0  0  0  0  0  0  0
    1.6540   17.2280   14.5290 H   0  0  0  0  0  0  0  0  0  0  0  0
    3.6630   15.0860   13.9510 H   0  0  0  0  0  0  0  0  0  0  0  0
    1.7870   13.6780   14.0420 H   0  0  0  0  0  0  0  0  0  0  0  0
    0.6720   14.9890   13.5570 H   0  0  0  0  0  0  0  0  0  0  0  0
    2.4620   17.2460   12.3470 H   0  0  0  0  0  0  0  0  0  0  0  0
    4.0180   16.5340   12.2380 H   0  0  0  0  0  0  0  0  0  0  0  0
    5.1320   19.1650   19.0900 H   0  0  0  0  0  0  0  0  0  0  0  0
    2.4850   13.3450   11.8700 H   0  0  0  0  0  0  0  0  0  0  0  0
    0.9030   13.9000   11.5000 H   0  0  0  0  0  0  0  0  0  0  0  0
    1.7100   15.9030   10.7890 H   0  0  0  0  0  0  0  0  0  0  0  0
    4.6520   21.0060   14.9390 H   0  0  0  0  0  0  0  0  0  0  0  0
    3.0370   14.6560    9.3150 H   0  0  0  0  0  0  0  0  0  0  0  0
    3.9490   15.9860    9.8450 H   0  0  0  0  0  0  0  0  0  0  0  0
    8.9880   21.5290   19.4500 H   0  0  0  0  0  0  0  0  0  0  0  0
    4.8160   14.2380   11.6950 H   0  0  0  0  0  0  0  0  0  0  0  0
    4.3260   13.1020   10.4390 H   0  0  0  0  0  0  0  0  0  0  0  0
    7.6000   22.3820   16.2950 H   0  0  0  0  0  0  0  0  0  0  0  0
    8.0180   20.6280   20.4630 H   0  0  0  0  0  0  0  0  0  0  0  0
  1  2  2  0  0  0  0
  1  3  1  0  0  0  0
  1 33  1  0  0  0  0
  2  4  1  0  0  0  0
  2 34  1  0  0  0  0
  3  6  2  0  0  0  0
  3 35  1  0  0  0  0
  4  5  2  0  0  0  0
  4 36  1  0  0  0  0
  5  6  1  0  0  0  0
  5 37  1  0  0  0  0
  6  7  1  0  0  0  0
  7  8  1  0  0  0  0
  7  9  1  0  0  0  0
  7 38  1  0  0  0  0
  8 10  1  0  0  0  0
  8 39  1  0  0  0  0
  9 11  1  0  0  0  0
  9 14  2  0  0  0  0
 10 12  2  0  0  0  0
 10 13  1  0  0  0  0
 11 15  1  0  0  0  0
 11 40  1  0  0  0  0
 13 18  1  0  0  0  0
 13 20  2  0  0  0  0
 15 16  1  0  0  0  0
 15 17  1  0  0  0  0
 15 41  1  0  0  0  0
 16 19  1  0  0  0  0
 16 42  1  0  0  0  0
 16 43  1  0  0  0  0
 17 21  1  0  0  0  0
 17 44  1  0  0  0  0
 17 45  1  0  0  0  0
 18 22  2  0  0  0  0
 18 46  1  0  0  0  0
 19 21  1  0  0  0  0
 19 47  1  0  0  0  0
 19 48  1  0  0  0  0
 20 23  1  0  0  0  0
 20 28  1  0  0  0  0
 21 24  1  0  0  0  0
 21 49  1  0  0  0  0
 22 25  1  0  0  0  0
 22 29  1  0  0  0  0
 23 50  1  0  0  0  0
 24 27  1  0  0  0  0
 24 51  1  0  0  0  0
 24 52  1  0  0  0  0
 25 26  1  0  0  0  0
 25 28  2  0  0  0  0
 26 53  1  0  0  0  0
 27 30  1  0  0  0  0
 27 54  1  0  0  0  0
 27 55  1  0  0  0  0
 28 56  1  0  0  0  0
 29 57  1  0  0  0  0
 30 31  1  0  0  0  0
 30 32  2  0  0  0  0
M  CHG  1  21   1
M  CHG  1  31  -1
M  END
> <rseq>
1

> <mseq>
305

> <S>
-7.505547

> <rmsd_refine>
1.794039

> <E_conf>
-131.7546

> <E_score1>
-10.8977

> <E_refine>
-46.88121

> <E_score2>
-7.505547

>  <$File>
outputs/pdb_4j58_cleaned.pdb_2024_06_17__22_47_40_V2_BS398_MIN1_/SDF/sdf_db.sdf

> <Rec_index>
1

>  <PLIF_raw>
[[14,32,32,26,26,26,26,26,26,1,3,6,5,4,2],[954,823,823,1651,1655,1659,1657,1653,1650,1519,1519,1519,1519,1519,1519],[62,54,54,112,112,112,112,112,112,102,102,102,102,102,102],[2,2,7,10,10,10,10,10,10,10,10,10,10,10,10],[1.3,5.8,4.049663792,2.1,2.1,2.1,2.1,2.1,2.1,0.6,0.6,0.6,0.6,0.6,0.6]]

> <FP:PLIF>
6 19 1 16 20 22 15 47

>  <PLIF_ligidx>
[32,32,32,32,14,[1,3,6,5,4,2],[26,26,26,26,26,26],[26,26,26,26,26,26]]

$$$$
305
  MOE2022           3D

 47 51  0  0  0  0  0  0  0  0999 V2000
    7.1380   20.8390   18.9380 C   0  0  0  0  0  0  0  0  0  0  0  0
    6.1790   19.8580   18.7040 C   0  0  0  0  0  0  0  0  0  0  0  0
    4.9940   20.1490   18.0130 C   0  0  0  0  0  0  0  0  0  0  0  0
    3.9980   19.0980   17.7610 C   0  0  0  0  0  0  0  0  0  0  0  0
    3.4210   18.9160   16.4960 C   0  0  0  0  0  0  0  0  0  0  0  0
    3.5790   18.2720   18.8060 C   0  0  0  0  0  0  0  0  0  0  0  0
    2.5560   17.3280   18.6460 C   0  0  0  0  0  0  0  0  0  0  0  0
    2.4030   17.9840   16.3080 C   0  0  0  0  0  0  0  0  0  0  0  0
    2.0700   16.5490   19.7820 C   0  0  0  0  0  0  0  0  0  0  0  0
    1.9840   17.1930   17.3740 C   0  0  0  0  0  0  0  0  0  0  0  0
    1.7010   17.8700   14.9680 C   0  0  0  0  0  0  0  0  0  0  0  0
    0.8730   16.0080   19.8420 N   0  0  0  0  0  0  0  0  0  0  0  0
    2.7640   16.3330   20.8780 N   0  0  0  0  0  0  0  0  0  0  0  0
    1.9680   15.6320   21.6560 N   0  5  0  0  0  0  0  0  0  0  0  0
    2.2960   16.9260   14.0070 N   0  0  0  0  0  0  0  0  0  0  0  0
    4.7980   21.4830   17.6070 C   0  0  0  0  0  0  0  0  0  0  0  0
    3.0500   17.3870   12.9240 C   0  0  0  0  0  0  0  0  0  0  0  0
    0.8170   15.4380   21.0250 N   0  0  0  0  0  0  0  0  0  0  0  0
    3.4290   16.4360   11.8880 C   0  0  0  0  0  0  0  0  0  0  0  0
    3.6350   21.8610   17.0020 O   0  0  0  0  0  0  0  0  0  0  0  0
    3.3680   18.5810   12.8950 O   0  0  0  0  0  0  0  0  0  0  0  0
    4.1350   16.8570   10.7430 C   0  0  0  0  0  0  0  0  0  0  0  0
    6.9320   22.1420   18.4970 C   0  0  0  0  0  0  0  0  0  0  0  0
    5.7570   22.4680   17.8310 C   0  0  0  0  0  0  0  0  0  0  0  0
    4.5310   15.9310    9.7870 C   0  0  0  0  0  0  0  0  0  0  0  0
    5.2580   16.3420    8.7070 O   0  0  0  0  0  0  0  0  0  0  0  0
    3.0990   15.0730   12.0410 C   0  0  0  0  0  0  0  0  0  0  0  0
    2.3930   14.6610   13.2240 C   0  0  0  0  0  0  0  0  0  0  0  0
    3.4830   14.1820   11.0200 C   0  0  0  0  0  0  0  0  0  0  0  0
    3.1300   12.8740   11.1100 F   0  0  0  0  0  0  0  0  0  0  0  0
    4.2030   14.5800    9.9090 C   0  0  0  0  0  0  0  0  0  0  0  0
    2.0090   15.5640   14.1620 C   0  0  0  0  0  0  0  0  0  0  0  0
    8.0310   20.5930   19.4540 H   0  0  0  0  0  0  0  0  0  0  0  0
    6.3540   18.8790   19.0580 H   0  0  0  0  0  0  0  0  0  0  0  0
    3.7440   19.5100   15.6800 H   0  0  0  0  0  0  0  0  0  0  0  0
    4.0240   18.3860   19.7590 H   0  0  0  0  0  0  0  0  0  0  0  0
    1.2060   16.4870   17.2280 H   0  0  0  0  0  0  0  0  0  0  0  0
    0.6710   17.5870   15.1430 H   0  0  0  0  0  0  0  0  0  0  0  0
    1.6120   18.8560   14.5330 H   0  0  0  0  0  0  0  0  0  0  0  0
    3.0060   21.1120   16.9870 H   0  0  0  0  0  0  0  0  0  0  0  0
    4.3750   17.8810   10.6150 H   0  0  0  0  0  0  0  0  0  0  0  0
    7.6680   22.8840   18.6710 H   0  0  0  0  0  0  0  0  0  0  0  0
    5.5880   23.4610   17.5020 H   0  0  0  0  0  0  0  0  0  0  0  0
    5.4220   17.3050    8.7360 H   0  0  0  0  0  0  0  0  0  0  0  0
    2.1660   13.6340   13.3550 H   0  0  0  0  0  0  0  0  0  0  0  0
    4.4920   13.8820    9.1650 H   0  0  0  0  0  0  0  0  0  0  0  0
    1.4750   15.3130   15.0430 H   0  0  0  0  0  0  0  0  0  0  0  0
  1  2  1  0  0  0  0
  1 23  2  0  0  0  0
  1 33  1  0  0  0  0
  2  3  2  0  0  0  0
  2 34  1  0  0  0  0
  3  4  1  0  0  0  0
  3 16  1  0  0  0  0
  4  5  1  0  0  0  0
  4  6  2  0  0  0  0
  5  8  2  0  0  0  0
  5 35  1  0  0  0  0
  6  7  1  0  0  0  0
  6 36  1  0  0  0  0
  7  9  1  0  0  0  0
  7 10  2  0  0  0  0
  8 10  1  0  0  0  0
  8 11  1  0  0  0  0
  9 12  1  0  0  0  0
  9 13  2  0  0  0  0
 10 37  1  0  0  0  0
 11 15  1  0  0  0  0
 11 38  1  0  0  0  0
 11 39  1  0  0  0  0
 12 18  2  0  0  0  0
 13 14  1  0  0  0  0
 14 18  1  0  0  0  0
 15 17  1  0  0  0  0
 15 32  1  0  0  0  0
 16 20  1  0  0  0  0
 16 24  2  0  0  0  0
 17 19  1  0  0  0  0
 17 21  2  0  0  0  0
 19 22  2  0  0  0  0
 19 27  1  0  0  0  0
 20 40  1  0  0  0  0
 22 25  1  0  0  0  0
 22 41  1  0  0  0  0
 23 24  1  0  0  0  0
 23 42  1  0  0  0  0
 24 43  1  0  0  0  0
 25 26  1  0  0  0  0
 25 31  2  0  0  0  0
 26 44  1  0  0  0  0
 27 28  1  0  0  0  0
 27 29  2  0  0  0  0
 28 32  2  0  0  0  0
 28 45  1  0  0  0  0
 29 30  1  0  0  0  0
 29 31  1  0  0  0  0
 31 46  1  0  0  0  0
 32 47  1  0  0  0  0
M  CHG  1  14  -1
M  END
> <rseq>
1

> <mseq>
306

> <S>
-6.599913

> <rmsd_refine>
0.918716

> <E_conf>
-61.20366

> <E_score1>
-12.18517

> <E_refine>
-38.72594

> <E_score2>
-6.599913

>  <$File>
outputs/pdb_4j58_cleaned.pdb_2024_06_17__22_47_40_V2_BS398_MIN1_/SDF/sdf_db.sdf

> <Rec_index>
1

>  <PLIF_raw>
[[18,18,14,14,18,18,1,1,1,1,1,1,4,6,7,10,8,5],[1206,1212,1206,1212,1206,1212,1651,1655,1659,1657,1653,1650,954,954,954,954,954,954],[81,81,81,81,81,81,112,112,112,112,112,112,62,62,62,62,62,62],[2,2,7,7,7,7,10,10,10,10,10,10,10,10,10,10,10,10],[4.2,0.7,1.847903494,1.389570228,3.321778494,3.915333159,0.5,0.5,0.5,0.5,0.5,0.5,0.8,0.8,0.8,0.8,0.8,0.8]]

> <FP:PLIF>
21 17 18 24 25 15

>  <PLIF_ligidx>
[[4,6,7,10,8,5],[18,18],18,[14,14,18,18],18,[1,1,1,1,1,1]]

$$$$
306
  MOE2022           3D

 59 61  0  0  1  0  0  0  0  0999 V2000
    2.7330   16.2240   20.9750 C   0  0  0  0  0  0  0  0  0  0  0  0
    1.5340   15.6680   21.3950 C   0  0  0  0  0  0  0  0  0  0  0  0
    2.7930   16.9520   19.7950 C   0  0  0  0  0  0  0  0  0  0  0  0
    0.3910   15.8260   20.6190 C   0  0  0  0  0  0  0  0  0  0  0  0
    0.4550   16.5410   19.4270 C   0  0  0  0  0  0  0  0  0  0  0  0
    1.6510   17.1230   19.0080 C   0  0  0  0  0  0  0  0  0  0  0  0
    1.6760   17.9100   17.7010 C   0  0  1  0  0  0  0  0  0  0  0  0
    2.9200   18.6790   17.5400 N   0  0  0  0  0  0  0  0  0  0  0  0
    1.3560   16.9760   16.5130 C   0  0  0  0  0  0  0  0  0  0  0  0
    2.9640   20.0180   17.6250 C   0  0  0  0  0  0  0  0  0  0  0  0
    1.7770   17.3890   15.1420 N   0  0  0  0  0  0  0  0  0  0  0  0
    1.2430   18.5090   14.5150 C   0  0  0  0  0  0  0  0  0  0  0  0
    0.4430   19.2980   15.2460 O   0  0  0  0  0  0  0  0  0  0  0  0
    2.6510   16.5460   14.4240 C   0  0  0  0  0  0  0  0  0  0  0  0
    4.3220   20.6420   18.0050 C   0  0  1  0  0  0  0  0  0  0  0  0
    3.2910   15.6970   15.0660 O   0  0  0  0  0  0  0  0  0  0  0  0
    2.7700   16.7420   12.9980 C   0  0  0  0  0  0  0  0  0  0  0  0
    3.3850   15.7130   12.1920 C   0  0  0  0  0  0  0  0  0  0  0  0
    3.3240   14.5180   12.4480 O   0  0  0  0  0  0  0  0  0  0  0  0
    1.9650   20.7250   17.4910 O   0  0  0  0  0  0  0  0  0  0  0  0
    1.5060   18.7890   13.1930 C   0  0  0  0  0  0  0  0  0  0  0  0
    4.0750   16.0890   11.0810 O   0  0  0  0  0  0  0  0  0  0  0  0
    5.3660   20.5060   16.8880 C   0  0  0  0  0  0  0  0  0  0  0  0
    2.2620   17.8900   12.4270 C   0  0  0  0  0  0  0  0  0  0  0  0
    4.1810   22.0470   18.3840 N   0  0  0  0  0  0  0  0  0  0  0  0
    5.1950   22.9180   18.4470 C   0  0  0  0  0  0  0  0  0  0  0  0
    6.7000   21.1630   17.3070 C   0  0  1  0  0  0  0  0  0  0  0  0
    5.0960   23.9690   19.0720 O   0  0  0  0  0  0  0  0  0  0  0  0
    6.4410   22.6540   17.5900 C   0  0  0  0  0  0  0  0  0  0  0  0
    4.7310   15.1190   10.2170 C   0  0  0  0  0  0  0  0  0  0  0  0
    7.3720   20.4920   18.5190 C   0  0  0  0  0  0  0  0  0  0  0  0
    5.7790   15.7650    9.3150 C   0  0  0  0  0  0  0  0  0  0  0  0
    3.6050   16.0900   21.5550 H   0  0  0  0  0  0  0  0  0  0  0  0
    1.5050   15.1270   22.3030 H   0  0  0  0  0  0  0  0  0  0  0  0
    3.7200   17.3730   19.5090 H   0  0  0  0  0  0  0  0  0  0  0  0
   -0.5290   15.4040   20.9290 H   0  0  0  0  0  0  0  0  0  0  0  0
   -0.4190   16.6420   18.8370 H   0  0  0  0  0  0  0  0  0  0  0  0
    0.8550   18.6100   17.7610 H   0  0  0  0  0  0  0  0  0  0  0  0
    3.7820   18.1640   17.6090 H   0  0  0  0  0  0  0  0  0  0  0  0
    1.7560   16.0030   16.7580 H   0  0  0  0  0  0  0  0  0  0  0  0
    0.2900   16.7960   16.5080 H   0  0  0  0  0  0  0  0  0  0  0  0
    0.3980   19.0090   16.1770 H   0  0  0  0  0  0  0  0  0  0  0  0
    4.6810   20.0960   18.8770 H   0  0  0  0  0  0  0  0  0  0  0  0
    1.1110   19.6630   12.7440 H   0  0  0  0  0  0  0  0  0  0  0  0
    5.5260   19.4520   16.6750 H   0  0  0  0  0  0  0  0  0  0  0  0
    4.9900   20.9870   15.9830 H   0  0  0  0  0  0  0  0  0  0  0  0
    2.4080   18.0850   11.3950 H   0  0  0  0  0  0  0  0  0  0  0  0
    3.3020   22.3050   18.8100 H   0  0  0  0  0  0  0  0  0  0  0  0
    7.3950   21.0900   16.4680 H   0  0  0  0  0  0  0  0  0  0  0  0
    6.2900   23.1590   16.6350 H   0  0  0  0  0  0  0  0  0  0  0  0
    7.3150   23.0970   18.0700 H   0  0  0  0  0  0  0  0  0  0  0  0
    5.2250   14.3620   10.8290 H   0  0  0  0  0  0  0  0  0  0  0  0
    3.9730   14.6350    9.5990 H   0  0  0  0  0  0  0  0  0  0  0  0
    7.5070   19.4290   18.3290 H   0  0  0  0  0  0  0  0  0  0  0  0
    8.3550   20.9380   18.6840 H   0  0  0  0  0  0  0  0  0  0  0  0
    6.7780   20.6250   19.4230 H   0  0  0  0  0  0  0  0  0  0  0  0
    6.1980   15.0100    8.6500 H   0  0  0  0  0  0  0  0  0  0  0  0
    5.3200   16.5550    8.7210 H   0  0  0  0  0  0  0  0  0  0  0  0
    6.5760   16.1820    9.9290 H   0  0  0  0  0  0  0  0  0  0  0  0
  1  2  2  0  0  0  0
  1  3  1  0  0  0  0
  1 33  1  0  0  0  0
  2  4  1  0  0  0  0
  2 34  1  0  0  0  0
  3  6  2  0  0  0  0
  3 35  1  0  0  0  0
  4  5  2  0  0  0  0
  4 36  1  0  0  0  0
  5  6  1  0  0  0  0
  5 37  1  0  0  0  0
  6  7  1  0  0  0  0
  7  8  1  0  0  0  0
  7  9  1  0  0  0  0
  7 38  1  0  0  0  0
  8 10  1  0  0  0  0
  8 39  1  0  0  0  0
  9 11  1  0  0  0  0
  9 40  1  0  0  0  0
  9 41  1  0  0  0  0
 10 15  1  0  0  0  0
 10 20  2  0  0  0  0
 11 12  1  0  0  0  0
 11 14  1  0  0  0  0
 12 13  1  0  0  0  0
 12 21  2  0  0  0  0
 13 42  1  0  0  0  0
 14 16  2  0  0  0  0
 14 17  1  0  0  0  0
 15 23  1  0  0  0  0
 15 25  1  0  0  0  0
 15 43  1  0  0  0  0
 17 18  1  0  0  0  0
 17 24  2  0  0  0  0
 18 19  2  0  0  0  0
 18 22  1  0  0  0  0
 21 24  1  0  0  0  0
 21 44  1  0  0  0  0
 22 30  1  0  0  0  0
 23 27  1  0  0  0  0
 23 45  1  0  0  0  0
 23 46  1  0  0  0  0
 24 47  1  0  0  0  0
 25 26  1  0  0  0  0
 25 48  1  0  0  0  0
 26 28  2  0  0  0  0
 26 29  1  0  0  0  0
 27 29  1  0  0  0  0
 27 31  1  0  0  0  0
 27 49  1  0  0  0  0
 29 50  1  0  0  0  0
 29 51  1  0  0  0  0
 30 32  1  0  0  0  0
 30 52  1  0  0  0  0
 30 53  1  0  0  0  0
 31 54  1  0  0  0  0
 31 55  1  0  0  0  0
 31 56  1  0  0  0  0
 32 57  1  0  0  0  0
 32 58  1  0  0  0  0
 32 59  1  0  0  0  0
M  END
> <rseq>
1

> <mseq>
307

> <S>
-7.079218

> <rmsd_refine>
1.094038

> <E_conf>
-64.48468

> <E_score1>
-9.191761

> <E_refine>
-36.70084

> <E_score2>
-7.079218

>  <$File>
outputs/pdb_4j58_cleaned.pdb_2024_06_17__22_47_40_V2_BS398_MIN1_/SDF/sdf_db.sdf

> <Rec_index>
1

>  <PLIF_raw>
[28,1872,125,2,1.8]

> <FP:PLIF>
29 46

>  <PLIF_ligidx>
[28,28]

$$$$
307
  MOE2022           3D

 52 54  0  0  1  0  0  0  0  0999 V2000
    3.4140   17.5020   19.3560 O   0  0  0  0  0  0  0  0  0  0  0  0
    2.5180   17.7590   18.5550 C   0  0  0  0  0  0  0  0  0  0  0  0
    2.7060   18.7770   17.6550 N   0  0  0  0  0  0  0  0  0  0  0  0
    1.2560   17.0140   18.4960 C   0  0  0  0  0  0  0  0  0  0  0  0
    0.1860   17.4380   17.6890 C   0  0  0  0  0  0  0  0  0  0  0  0
   -0.9850   16.6930   17.6140 C   0  0  0  0  0  0  0  0  0  0  0  0
    1.1060   15.8310   19.2350 C   0  0  0  0  0  0  0  0  0  0  0  0
    3.9900   19.3800   17.2970 C   0  0  1  0  0  0  0  0  0  0  0  0
   -0.0650   15.0870   19.1500 C   0  0  0  0  0  0  0  0  0  0  0  0
   -1.1110   15.5150   18.3410 C   0  0  0  0  0  0  0  0  0  0  0  0
    3.9820   19.7800   15.8170 C   0  0  0  0  0  0  0  0  0  0  0  0
    3.6300   18.8520   14.8210 C   0  0  0  0  0  0  0  0  0  0  0  0
    3.3970   17.5380   15.1320 O   0  0  0  0  0  0  0  0  0  0  0  0
    3.5130   19.2150   13.4830 C   0  0  0  0  0  0  0  0  0  0  0  0
    3.7790   20.5330   13.1220 C   0  0  0  0  0  0  0  0  0  0  0  0
    4.3140   20.5390   18.2560 C   0  0  0  0  0  0  0  0  0  0  0  0
    3.6100   20.9940   11.8280 O   0  0  0  0  0  0  0  0  0  0  0  0
    4.1950   21.4590   14.0790 C   0  0  0  0  0  0  0  0  0  0  0  0
    5.3650   21.5080   17.7100 C   0  0  1  0  0  0  0  0  0  0  0  0
    4.3140   21.0850   15.4190 C   0  0  0  0  0  0  0  0  0  0  0  0
    3.9040   20.4190   10.5130 C   0  0  0  0  0  0  0  0  0  0  0  0
    4.7810   22.1240   16.4270 C   0  0  0  0  0  0  0  0  0  0  0  0
    3.4330   18.9970   10.2820 C   0  0  0  0  0  0  0  0  0  0  0  0
    5.7460   22.5600   18.7630 C   0  0  0  0  0  0  0  0  0  0  0  0
    2.2460   18.6830   10.3480 O   0  0  0  0  0  0  0  0  0  0  0  0
    4.3930   18.1180    9.9660 N   0  0  0  0  0  0  0  0  0  0  0  0
    6.8560   22.4280   19.3210 O   0  0  0  0  0  0  0  0  0  0  0  0
    4.9190   23.4610   19.0290 O   0  5  0  0  0  0  0  0  0  0  0  0
    4.1810   16.7040    9.6680 C   0  0  0  0  0  0  0  0  0  0  0  0
    5.4930   16.0340    9.2460 C   0  0  0  0  0  0  0  0  0  0  0  0
    6.3520   15.8570   10.1390 O   0  5  0  0  0  0  0  0  0  0  0  0
    5.6260   15.7340    8.0410 O   0  0  0  0  0  0  0  0  0  0  0  0
    1.9290   19.0070   17.0210 H   0  0  0  0  0  0  0  0  0  0  0  0
    0.2560   18.3320   17.1260 H   0  0  0  0  0  0  0  0  0  0  0  0
   -1.7830   17.0220   17.0000 H   0  0  0  0  0  0  0  0  0  0  0  0
    1.8960   15.4900   19.8530 H   0  0  0  0  0  0  0  0  0  0  0  0
    4.7680   18.6400   17.4110 H   0  0  0  0  0  0  0  0  0  0  0  0
   -0.1610   14.1840   19.6920 H   0  0  0  0  0  0  0  0  0  0  0  0
   -2.0010   14.9440   18.2780 H   0  0  0  0  0  0  0  0  0  0  0  0
    3.1250   17.0380   14.3380 H   0  0  0  0  0  0  0  0  0  0  0  0
    3.2120   18.4980   12.7680 H   0  0  0  0  0  0  0  0  0  0  0  0
    3.4010   21.1050   18.4480 H   0  0  0  0  0  0  0  0  0  0  0  0
    4.6640   20.1210   19.2010 H   0  0  0  0  0  0  0  0  0  0  0  0
    4.4130   22.4530   13.7830 H   0  0  0  0  0  0  0  0  0  0  0  0
    6.2600   20.9410   17.4480 H   0  0  0  0  0  0  0  0  0  0  0  0
    3.4450   21.0600    9.7720 H   0  0  0  0  0  0  0  0  0  0  0  0
    4.9680   20.5000   10.3410 H   0  0  0  0  0  0  0  0  0  0  0  0
    3.9280   22.7560   16.6810 H   0  0  0  0  0  0  0  0  0  0  0  0
    5.5440   22.7550   15.9690 H   0  0  0  0  0  0  0  0  0  0  0  0
    5.3430   18.4470    9.8720 H   0  0  0  0  0  0  0  0  0  0  0  0
    3.7950   16.1990   10.5530 H   0  0  0  0  0  0  0  0  0  0  0  0
    3.4550   16.6070    8.8610 H   0  0  0  0  0  0  0  0  0  0  0  0
  1  2  2  0  0  0  0
  2  3  1  0  0  0  0
  2  4  1  0  0  0  0
  3  8  1  0  0  0  0
  3 33  1  0  0  0  0
  4  5  2  0  0  0  0
  4  7  1  0  0  0  0
  5  6  1  0  0  0  0
  5 34  1  0  0  0  0
  6 10  2  0  0  0  0
  6 35  1  0  0  0  0
  7  9  2  0  0  0  0
  7 36  1  0  0  0  0
  8 11  1  0  0  0  0
  8 16  1  0  0  0  0
  8 37  1  0  0  0  0
  9 10  1  0  0  0  0
  9 38  1  0  0  0  0
 10 39  1  0  0  0  0
 11 12  1  0  0  0  0
 11 20  2  0  0  0  0
 12 13  1  0  0  0  0
 12 14  2  0  0  0  0
 13 40  1  0  0  0  0
 14 15  1  0  0  0  0
 14 41  1  0  0  0  0
 15 17  1  0  0  0  0
 15 18  2  0  0  0  0
 16 19  1  0  0  0  0
 16 42  1  0  0  0  0
 16 43  1  0  0  0  0
 17 21  1  0  0  0  0
 18 20  1  0  0  0  0
 18 44  1  0  0  0  0
 19 22  1  0  0  0  0
 19 24  1  0  0  0  0
 19 45  1  0  0  0  0
 20 22  1  0  0  0  0
 21 23  1  0  0  0  0
 21 46  1  0  0  0  0
 21 47  1  0  0  0  0
 22 48  1  0  0  0  0
 22 49  1  0  0  0  0
 23 25  2  0  0  0  0
 23 26  1  0  0  0  0
 24 27  2  0  0  0  0
 24 28  1  0  0  0  0
 26 29  1  0  0  0  0
 26 50  1  0  0  0  0
 29 30  1  0  0  0  0
 29 51  1  0  0  0  0
 29 52  1  0  0  0  0
 30 31  1  0  0  0  0
 30 32  2  0  0  0  0
M  CHG  1  28  -1
M  CHG  1  31  -1
M  END
> <rseq>
1

> <mseq>
308

> <S>
-6.090923

> <rmsd_refine>
2.02394

> <E_conf>
-170.1815

> <E_score1>
-11.89208

> <E_refine>
-34.54785

> <E_score2>
-6.090923

>  <$File>
outputs/pdb_4j58_cleaned.pdb_2024_06_17__22_47_40_V2_BS398_MIN1_/SDF/sdf_db.sdf

> <Rec_index>
1

>  <PLIF_raw>
[[26,28,31,27,28,31,31],[2222,1872,823,1872,1872,823,829],[148,125,54,125,125,54,54],[3,2,2,7,7,7,7],[4.3,1,7.4,2.458376561,3.967304022,4.97762882,0.5079687756]]

> <FP:PLIF>
6 19 1 16 29 13 31 39 40

>  <PLIF_ligidx>
[31,31,[31,31],31,28,[27,28],28,26,26]

$$$$
308
  MOE2022           3D

 57 60  0  0  1  0  0  0  0  0999 V2000
    2.6440   16.3490   20.7540 C   0  0  0  0  0  0  0  0  0  0  0  0
    1.4370   15.8170   21.1810 C   0  0  0  0  0  0  0  0  0  0  0  0
    2.7310   16.9930   19.5250 C   0  0  0  0  0  0  0  0  0  0  0  0
    0.3130   15.9190   20.3690 C   0  0  0  0  0  0  0  0  0  0  0  0
    0.4040   16.5490   19.1310 C   0  0  0  0  0  0  0  0  0  0  0  0
    1.6120   17.0950   18.6930 C   0  0  0  0  0  0  0  0  0  0  0  0
    1.6700   17.7730   17.3230 C   0  0  1  0  0  0  0  0  0  0  0  0
    2.9850   18.3550   17.0130 N   0  0  0  0  0  0  0  0  0  0  0  0
    1.2060   16.8030   16.2090 C   0  0  0  0  0  0  0  0  0  0  0  0
    3.2800   19.6550   17.1580 C   0  0  0  0  0  0  0  0  0  0  0  0
    1.6050   17.1500   14.8150 N   0  0  0  0  0  0  0  0  0  0  0  0
    1.1570   18.3520   14.2390 C   0  0  0  0  0  0  0  0  0  0  0  0
    0.3360   19.0300   14.8660 O   0  0  0  0  0  0  0  0  0  0  0  0
    2.4070   16.2490   14.0840 C   0  0  0  0  0  0  0  0  0  0  0  0
    4.6980   20.0780   16.7720 C   0  0  0  0  0  0  0  0  0  0  0  0
    2.7750   15.1820   14.5770 O   0  0  0  0  0  0  0  0  0  0  0  0
    2.7820   16.5940   12.7780 N   0  0  0  0  0  0  0  0  0  0  0  0
    1.6840   18.7200   12.9700 C   0  0  0  0  0  0  0  0  0  0  0  0
    2.5000   17.8730   12.2800 C   0  0  0  0  0  0  0  0  0  0  0  0
    3.1060   18.2370   11.0760 N   0  0  0  0  0  0  0  0  0  0  0  0
    2.4770   20.4960   17.5530 O   0  0  0  0  0  0  0  0  0  0  0  0
    3.3700   15.5670   11.8930 C   0  0  0  0  0  0  0  0  0  0  0  0
    4.2510   16.1510   10.8100 C   0  0  0  0  0  0  0  0  0  0  0  0
    5.2750   15.3100   10.2160 C   0  0  0  0  0  0  0  0  0  0  0  0
    4.0490   17.4360   10.4280 C   0  0  0  0  0  0  0  0  0  0  0  0
    5.2960   14.0750   10.4600 O   0  5  0  0  0  0  0  0  0  0  0  0
    5.4520   20.8110   17.8960 C   0  0  0  0  0  0  0  0  0  0  0  0
    6.1670   15.8320    9.4930 O   0  0  0  0  0  0  0  0  0  0  0  0
    5.6060   20.0020   19.1920 C   0  0  0  0  0  0  0  0  0  0  0  0
    6.8930   21.1580   17.5080 C   0  0  0  0  0  0  0  0  0  0  0  0
    6.9970   20.3240   19.7480 C   0  0  0  0  0  0  0  0  0  0  0  0
    7.5580   21.4290   18.8550 C   0  0  0  0  0  0  0  0  0  0  0  0
    3.5030   16.2620   21.3650 H   0  0  0  0  0  0  0  0  0  0  0  0
    1.3800   15.3400   22.1230 H   0  0  0  0  0  0  0  0  0  0  0  0
    3.6590   17.4060   19.2360 H   0  0  0  0  0  0  0  0  0  0  0  0
   -0.6140   15.5190   20.6890 H   0  0  0  0  0  0  0  0  0  0  0  0
   -0.4600   16.6160   18.5210 H   0  0  0  0  0  0  0  0  0  0  0  0
    0.9480   18.5790   17.3440 H   0  0  0  0  0  0  0  0  0  0  0  0
    3.6970   17.7310   16.6690 H   0  0  0  0  0  0  0  0  0  0  0  0
    1.5620   15.8190   16.4690 H   0  0  0  0  0  0  0  0  0  0  0  0
    0.1300   16.7090   16.2540 H   0  0  0  0  0  0  0  0  0  0  0  0
    5.2630   19.1940   16.4850 H   0  0  0  0  0  0  0  0  0  0  0  0
    4.6360   20.7290   15.8990 H   0  0  0  0  0  0  0  0  0  0  0  0
    1.4300   19.6690   12.5750 H   0  0  0  0  0  0  0  0  0  0  0  0
    2.9230   19.1830   10.7030 H   0  0  0  0  0  0  0  0  0  0  0  0
    3.9260   14.8380   12.4630 H   0  0  0  0  0  0  0  0  0  0  0  0
    2.5740   15.0040   11.4250 H   0  0  0  0  0  0  0  0  0  0  0  0
    4.5810   17.9170    9.6460 H   0  0  0  0  0  0  0  0  0  0  0  0
    4.9270   21.7400   18.1310 H   0  0  0  0  0  0  0  0  0  0  0  0
    4.8320   20.2860   19.9030 H   0  0  0  0  0  0  0  0  0  0  0  0
    5.5380   18.9360   18.9870 H   0  0  0  0  0  0  0  0  0  0  0  0
    7.3760   20.3040   17.0290 H   0  0  0  0  0  0  0  0  0  0  0  0
    6.9350   22.0340   16.8590 H   0  0  0  0  0  0  0  0  0  0  0  0
    6.9450   20.6530   20.7860 H   0  0  0  0  0  0  0  0  0  0  0  0
    7.6310   19.4400   19.6690 H   0  0  0  0  0  0  0  0  0  0  0  0
    8.6460   21.3770   18.7870 H   0  0  0  0  0  0  0  0  0  0  0  0
    7.2470   22.4050   19.2320 H   0  0  0  0  0  0  0  0  0  0  0  0
  1  2  2  0  0  0  0
  1  3  1  0  0  0  0
  1 33  1  0  0  0  0
  2  4  1  0  0  0  0
  2 34  1  0  0  0  0
  3  6  2  0  0  0  0
  3 35  1  0  0  0  0
  4  5  2  0  0  0  0
  4 36  1  0  0  0  0
  5  6  1  0  0  0  0
  5 37  1  0  0  0  0
  6  7  1  0  0  0  0
  7  8  1  0  0  0  0
  7  9  1  0  0  0  0
  7 38  1  0  0  0  0
  8 10  1  0  0  0  0
  8 39  1  0  0  0  0
  9 11  1  0  0  0  0
  9 40  1  0  0  0  0
  9 41  1  0  0  0  0
 10 15  1  0  0  0  0
 10 21  2  0  0  0  0
 11 12  1  0  0  0  0
 11 14  1  0  0  0  0
 12 13  2  0  0  0  0
 12 18  1  0  0  0  0
 14 16  2  0  0  0  0
 14 17  1  0  0  0  0
 15 27  1  0  0  0  0
 15 42  1  0  0  0  0
 15 43  1  0  0  0  0
 17 19  1  0  0  0  0
 17 22  1  0  0  0  0
 18 19  2  0  0  0  0
 18 44  1  0  0  0  0
 19 20  1  0  0  0  0
 20 25  1  0  0  0  0
 20 45  1  0  0  0  0
 22 23  1  0  0  0  0
 22 46  1  0  0  0  0
 22 47  1  0  0  0  0
 23 24  1  0  0  0  0
 23 25  2  0  0  0  0
 24 26  1  0  0  0  0
 24 28  2  0  0  0  0
 25 48  1  0  0  0  0
 27 29  1  0  0  0  0
 27 30  1  0  0  0  0
 27 49  1  0  0  0  0
 29 31  1  0  0  0  0
 29 50  1  0  0  0  0
 29 51  1  0  0  0  0
 30 32  1  0  0  0  0
 30 52  1  0  0  0  0
 30 53  1  0  0  0  0
 31 32  1  0  0  0  0
 31 54  1  0  0  0  0
 31 55  1  0  0  0  0
 32 56  1  0  0  0  0
 32 57  1  0  0  0  0
M  CHG  1  26  -1
M  END
> <rseq>
1

> <mseq>
309

> <S>
-7.365197

> <rmsd_refine>
1.073782

> <E_conf>
-280.0545

> <E_score1>
-10.46646

> <E_refine>
-37.73756

> <E_score2>
-7.365197

>  <$File>
outputs/pdb_4j58_cleaned.pdb_2024_06_17__22_47_40_V2_BS398_MIN1_/SDF/sdf_db.sdf

> <Rec_index>
1

>  <PLIF_raw>
[28,823,54,7,1.767232167]

> <FP:PLIF>
1

>  <PLIF_ligidx>
28

$$$$
309
  MOE2022           3D

 53 55  0  0  1  0  0  0  0  0999 V2000
    2.3090   16.4100   20.5080 C   0  0  0  0  0  0  0  0  0  0  0  0
    1.0490   15.8570   20.6910 C   0  0  0  0  0  0  0  0  0  0  0  0
    2.6610   16.9490   19.2760 C   0  0  0  0  0  0  0  0  0  0  0  0
    0.1430   15.8300   19.6370 C   0  0  0  0  0  0  0  0  0  0  0  0
    0.4980   16.3630   18.4000 C   0  0  0  0  0  0  0  0  0  0  0  0
    1.7580   16.9310   18.2090 C   0  0  0  0  0  0  0  0  0  0  0  0
    2.1160   17.5000   16.8400 C   0  0  1  0  0  0  0  0  0  0  0  0
    3.1110   18.5740   16.9180 N   0  0  0  0  0  0  0  0  0  0  0  0
    2.5800   16.4150   15.8790 C   0  0  0  0  0  0  0  0  0  0  0  0
    2.8440   19.8270   17.4140 C   0  0  0  0  0  0  0  0  0  0  0  0
    1.7860   16.1700   14.8260 N   0  0  0  0  0  0  0  0  0  0  0  0
    1.6710   20.1970   17.4150 O   0  0  0  0  0  0  0  0  0  0  0  0
    3.9710   20.6290   17.9140 C   0  0  0  0  0  0  0  0  0  0  0  0
    3.6520   15.8280   16.0370 O   0  0  0  0  0  0  0  0  0  0  0  0
    2.0740   15.1890   13.7860 C   0  0  1  0  0  0  0  0  0  0  0  0
    0.7900   14.8540   13.0330 C   0  0  0  0  0  0  0  0  0  0  0  0
    2.9870   15.7640   12.6960 C   0  0  0  0  0  0  0  0  0  0  0  0
    5.2640   20.0710   17.9750 C   0  0  0  0  0  0  0  0  0  0  0  0
    0.7560   15.8290   11.8530 C   0  0  0  0  0  0  0  0  0  0  0  0
    3.8140   21.9610   18.3670 C   0  0  0  0  0  0  0  0  0  0  0  0
    2.1340   16.2640   11.6130 N   0  0  0  0  0  0  0  0  0  0  0  0
    6.3310   20.8060   18.4720 C   0  0  0  0  0  0  0  0  0  0  0  0
    2.5970   22.5790   18.3560 O   0  0  0  0  0  0  0  0  0  0  0  0
    7.5790   20.2300   18.5200 O   0  0  0  0  0  0  0  0  0  0  0  0
    6.1420   22.1160   18.9170 C   0  0  0  0  0  0  0  0  0  0  0  0
    7.1920   22.8190   19.4210 O   0  0  0  0  0  0  0  0  0  0  0  0
    4.8860   22.7060   18.8550 C   0  0  0  0  0  0  0  0  0  0  0  0
    2.5650   17.0180   10.6160 C   0  0  0  0  0  0  0  0  0  0  0  0
    1.6570   17.4280    9.7870 O   0  3  0  0  0  0  0  0  0  0  0  0
    3.9660   17.4030   10.4300 C   0  0  0  0  0  0  0  0  0  0  0  0
    4.8580   16.5060   10.4240 O   0  5  0  0  0  0  0  0  0  0  0  0
    4.2410   18.6290   10.3130 O   0  0  0  0  0  0  0  0  0  0  0  0
    3.0030   16.4210   21.3080 H   0  0  0  0  0  0  0  0  0  0  0  0
    0.7840   15.4610   21.6340 H   0  0  0  0  0  0  0  0  0  0  0  0
    3.6210   17.3770   19.1620 H   0  0  0  0  0  0  0  0  0  0  0  0
   -0.8180   15.4070   19.7720 H   0  0  0  0  0  0  0  0  0  0  0  0
   -0.1980   16.3350   17.6020 H   0  0  0  0  0  0  0  0  0  0  0  0
    1.2100   17.9300   16.4320 H   0  0  0  0  0  0  0  0  0  0  0  0
    4.0920   18.2620   16.9060 H   0  0  0  0  0  0  0  0  0  0  0  0
    0.9260   16.6900   14.7390 H   0  0  0  0  0  0  0  0  0  0  0  0
    2.5170   14.2920   14.2180 H   0  0  0  0  0  0  0  0  0  0  0  0
    0.8760   13.8430   12.6360 H   0  0  0  0  0  0  0  0  0  0  0  0
   -0.0990   14.9340   13.6600 H   0  0  0  0  0  0  0  0  0  0  0  0
    3.6320   16.5340   13.0980 H   0  0  0  0  0  0  0  0  0  0  0  0
    3.6320   14.9780   12.3250 H   0  0  0  0  0  0  0  0  0  0  0  0
    5.4390   19.0830   17.6500 H   0  0  0  0  0  0  0  0  0  0  0  0
    0.3120   15.3590   10.9850 H   0  0  0  0  0  0  0  0  0  0  0  0
    0.1350   16.6790   12.1060 H   0  0  0  0  0  0  0  0  0  0  0  0
    1.9060   21.9550   18.0470 H   0  0  0  0  0  0  0  0  0  0  0  0
    7.5730   19.3490   18.0970 H   0  0  0  0  0  0  0  0  0  0  0  0
    8.0000   22.2670   19.3840 H   0  0  0  0  0  0  0  0  0  0  0  0
    4.7430   23.7040   19.1780 H   0  0  0  0  0  0  0  0  0  0  0  0
    0.7630   17.1090   10.0220 H   0  0  0  0  0  0  0  0  0  0  0  0
  1  2  2  0  0  0  0
  1  3  1  0  0  0  0
  1 33  1  0  0  0  0
  2  4  1  0  0  0  0
  2 34  1  0  0  0  0
  3  6  2  0  0  0  0
  3 35  1  0  0  0  0
  4  5  2  0  0  0  0
  4 36  1  0  0  0  0
  5  6  1  0  0  0  0
  5 37  1  0  0  0  0
  6  7  1  0  0  0  0
  7  8  1  0  0  0  0
  7  9  1  0  0  0  0
  7 38  1  0  0  0  0
  8 10  1  0  0  0  0
  8 39  1  0  0  0  0
  9 11  1  0  0  0  0
  9 14  2  0  0  0  0
 10 12  2  0  0  0  0
 10 13  1  0  0  0  0
 11 15  1  0  0  0  0
 11 40  1  0  0  0  0
 13 18  1  0  0  0  0
 13 20  2  0  0  0  0
 15 16  1  0  0  0  0
 15 17  1  0  0  0  0
 15 41  1  0  0  0  0
 16 19  1  0  0  0  0
 16 42  1  0  0  0  0
 16 43  1  0  0  0  0
 17 21  1  0  0  0  0
 17 44  1  0  0  0  0
 17 45  1  0  0  0  0
 18 22  2  0  0  0  0
 18 46  1  0  0  0  0
 19 21  1  0  0  0  0
 19 47  1  0  0  0  0
 19 48  1  0  0  0  0
 20 23  1  0  0  0  0
 20 27  1  0  0  0  0
 21 28  1  0  0  0  0
 22 24  1  0  0  0  0
 22 25  1  0  0  0  0
 23 49  1  0  0  0  0
 24 50  1  0  0  0  0
 25 26  1  0  0  0  0
 25 27  2  0  0  0  0
 26 51  1  0  0  0  0
 27 52  1  0  0  0  0
 28 29  2  0  0  0  0
 28 30  1  0  0  0  0
 29 53  1  0  0  0  0
 30 31  1  0  0  0  0
 30 32  2  0  0  0  0
M  CHG  1  29   1
M  CHG  1  31  -1
M  END
> <rseq>
1

> <mseq>
310

> <S>
-6.783089

> <rmsd_refine>
1.267574

> <E_conf>
47.43543

> <E_score1>
-10.43032

> <E_refine>
-34.98825

> <E_score2>
-6.783089

>  <$File>
outputs/pdb_4j58_cleaned.pdb_2024_06_17__22_47_40_V2_BS398_MIN1_/SDF/sdf_db.sdf

> <Rec_index>
1

>  <PLIF_raw>
[[14,31,31,31,32,32,1,3,6,5,4,2],[954,823,823,829,823,829,1519,1519,1519,1519,1519,1519],[62,54,54,54,54,54,102,102,102,102,102,102],[2,2,7,7,7,7,10,10,10,10,10,10],[1.4,3.2,5.206569082,0.9815185953,1.595524558,3.582869113,0.8,0.8,0.8,0.8,0.8,0.8]]

> <FP:PLIF>
6 19 1 16 20 22

>  <PLIF_ligidx>
[31,31,[31,31,32,32],[31,32],14,[1,3,6,5,4,2]]

$$$$
310
  MOE2022           3D

 58 62  0  0  1  0  0  0  0  0999 V2000
    5.5250   15.0880    9.8140 C   0  0  0  0  0  0  0  0  0  0  0  0
    5.2190   15.8740    8.7100 C   0  0  0  0  0  0  0  0  0  0  0  0
    4.5460   14.8870   10.7800 C   0  0  0  0  0  0  0  0  0  0  0  0
    6.1600   16.0880    7.7760 F   0  0  0  0  0  0  0  0  0  0  0  0
    3.2790   15.4820   10.6510 C   0  0  0  0  0  0  0  0  0  0  0  0
    2.2800   15.3510   11.6910 C   0  0  0  0  0  0  0  0  0  0  0  0
    3.9690   16.4500    8.5350 C   0  0  0  0  0  0  0  0  0  0  0  0
    2.9990   16.2470    9.5070 C   0  0  0  0  0  0  0  0  0  0  0  0
    2.5810   15.5680   13.0230 N   0  0  0  0  0  0  0  0  0  0  0  0
    0.9320   15.1030   11.6360 C   0  0  0  0  0  0  0  0  0  0  0  0
    1.4380   15.5010   13.7730 C   0  0  0  0  0  0  0  0  0  0  0  0
    1.4170   15.7660   15.1680 N   0  0  0  0  0  0  0  0  0  0  0  0
    0.4060   15.1910   12.9260 C   0  0  0  0  0  0  0  0  0  0  0  0
    0.2830   16.5930   15.6050 C   0  0  0  0  0  0  0  0  0  0  0  0
    2.6170   16.3380   15.7870 C   0  0  0  0  0  0  0  0  0  0  0  0
    2.3360   17.8110   16.1420 C   0  0  2  0  0  0  0  0  0  0  0  0
    3.1610   18.2270   17.3820 C   0  0  1  0  0  0  0  0  0  0  0  0
    0.8100   17.7910   16.4070 C   0  0  2  0  0  0  0  0  0  0  0  0
    2.7490   18.6690   14.9290 C   0  0  0  0  0  0  0  0  0  0  0  0
    3.9320   18.5460   14.5430 O   0  5  0  0  0  0  0  0  0  0  0  0
    3.0110   19.6470   17.6440 O   0  0  0  0  0  0  0  0  0  0  0  0
    4.0320   20.4550   18.1240 C   0  0  0  0  0  0  0  0  0  0  0  0
    3.9170   21.8270   17.9130 C   0  0  0  0  0  0  0  0  0  0  0  0
    4.9240   22.6770   18.3600 C   0  0  0  0  0  0  0  0  0  0  0  0
    5.1390   19.9300   18.7990 C   0  0  0  0  0  0  0  0  0  0  0  0
    6.0370   22.1590   19.0190 C   0  0  0  0  0  0  0  0  0  0  0  0
    6.1420   20.7880   19.2420 C   0  0  0  0  0  0  0  0  0  0  0  0
    2.8020   17.4100   18.6480 C   0  0  0  0  0  0  0  0  0  0  0  0
    1.9140   19.4390   14.4090 O   0  0  0  0  0  0  0  0  0  0  0  0
    1.4070   16.8360   18.6900 N   0  3  2  0  0  0  0  0  0  0  0  0
    0.4580   17.6790   17.8990 C   0  0  0  0  0  0  0  0  0  0  0  0
    0.9340   16.5390   20.0770 C   0  0  0  0  0  0  0  0  0  0  0  0
    6.4840   14.6480    9.9150 H   0  0  0  0  0  0  0  0  0  0  0  0
    4.7560   14.2780   11.6210 H   0  0  0  0  0  0  0  0  0  0  0  0
    3.7610   17.0370    7.6780 H   0  0  0  0  0  0  0  0  0  0  0  0
    2.0420   16.6880    9.3940 H   0  0  0  0  0  0  0  0  0  0  0  0
    3.5110   15.8160   13.3950 H   0  0  0  0  0  0  0  0  0  0  0  0
    0.3850   14.8980   10.7520 H   0  0  0  0  0  0  0  0  0  0  0  0
   -0.6070   15.0630   13.2050 H   0  0  0  0  0  0  0  0  0  0  0  0
   -0.2710   16.9640   14.7520 H   0  0  0  0  0  0  0  0  0  0  0  0
   -0.4120   16.0000   16.1840 H   0  0  0  0  0  0  0  0  0  0  0  0
    2.8250   15.7630   16.6760 H   0  0  0  0  0  0  0  0  0  0  0  0
    3.5120   16.2210   15.1940 H   0  0  0  0  0  0  0  0  0  0  0  0
    4.2120   18.0740   17.1470 H   0  0  0  0  0  0  0  0  0  0  0  0
    0.3070   18.6920   16.0550 H   0  0  0  0  0  0  0  0  0  0  0  0
    3.0700   22.2170   17.4090 H   0  0  0  0  0  0  0  0  0  0  0  0
    4.8460   23.7210   18.1940 H   0  0  0  0  0  0  0  0  0  0  0  0
    5.2260   18.8930   18.9780 H   0  0  0  0  0  0  0  0  0  0  0  0
    6.8070   22.8080   19.3500 H   0  0  0  0  0  0  0  0  0  0  0  0
    6.9880   20.3980   19.7460 H   0  0  0  0  0  0  0  0  0  0  0  0
    3.5230   16.6110   18.7450 H   0  0  0  0  0  0  0  0  0  0  0  0
    2.9970   18.0400   19.5050 H   0  0  0  0  0  0  0  0  0  0  0  0
    1.4510   15.9530   18.1940 H   0  0  0  0  0  0  0  0  0  0  0  0
    0.4270   18.6830   18.3010 H   0  0  0  0  0  0  0  0  0  0  0  0
   -0.5620   17.3310   17.9850 H   0  0  0  0  0  0  0  0  0  0  0  0
    1.6000   15.8780   20.6160 H   0  0  0  0  0  0  0  0  0  0  0  0
    0.8400   17.4240   20.6890 H   0  0  0  0  0  0  0  0  0  0  0  0
   -0.0380   16.0650   20.0970 H   0  0  0  0  0  0  0  0  0  0  0  0
  1  2  2  0  0  0  0
  1  3  1  0  0  0  0
  1 33  1  0  0  0  0
  2  4  1  0  0  0  0
  2  7  1  0  0  0  0
  3  5  2  0  0  0  0
  3 34  1  0  0  0  0
  5  6  1  0  0  0  0
  5  8  1  0  0  0  0
  6  9  1  0  0  0  0
  6 10  2  0  0  0  0
  7  8  2  0  0  0  0
  7 35  1  0  0  0  0
  8 36  1  0  0  0  0
  9 11  1  0  0  0  0
  9 37  1  0  0  0  0
 10 13  1  0  0  0  0
 10 38  1  0  0  0  0
 11 12  1  0  0  0  0
 11 13  2  0  0  0  0
 12 14  1  0  0  0  0
 12 15  1  0  0  0  0
 13 39  1  0  0  0  0
 14 18  1  0  0  0  0
 14 40  1  0  0  0  0
 14 41  1  0  0  0  0
 15 16  1  0  0  0  0
 15 42  1  0  0  0  0
 15 43  1  0  0  0  0
 16 17  1  0  0  0  0
 16 18  1  0  0  0  0
 16 19  1  0  0  0  0
 17 21  1  0  0  0  0
 17 28  1  0  0  0  0
 17 44  1  0  0  0  0
 18 31  1  0  0  0  0
 18 45  1  0  0  0  0
 19 20  1  0  0  0  0
 19 29  2  0  0  0  0
 21 22  1  0  0  0  0
 22 23  1  0  0  0  0
 22 25  2  0  0  0  0
 23 24  2  0  0  0  0
 23 46  1  0  0  0  0
 24 26  1  0  0  0  0
 24 47  1  0  0  0  0
 25 27  1  0  0  0  0
 25 48  1  0  0  0  0
 26 27  2  0  0  0  0
 26 49  1  0  0  0  0
 27 50  1  0  0  0  0
 28 30  1  0  0  0  0
 28 51  1  0  0  0  0
 28 52  1  0  0  0  0
 30 31  1  0  0  0  0
 30 32  1  0  0  0  0
 30 53  1  0  0  0  0
 31 54  1  0  0  0  0
 31 55  1  0  0  0  0
 32 56  1  0  0  0  0
 32 57  1  0  0  0  0
 32 58  1  0  0  0  0
M  CHG  1  20  -1
M  CHG  1  30   1
M  END
> <rseq>
1

> <mseq>
311

> <S>
-6.086247

> <rmsd_refine>
1.065011

> <E_conf>
-37.45395

> <E_score1>
-11.16004

> <E_refine>
-23.55809

> <E_score2>
-6.086247

>  <$File>
outputs/pdb_4j58_cleaned.pdb_2024_06_17__22_47_40_V2_BS398_MIN1_/SDF/sdf_db.sdf

> <Rec_index>
1

>  <PLIF_raw>
[[30,20,20,20],[1071,823,826,829],[71,54,54,54],[3,7,7,7],[0.5,2.380374661,4.702441162,0.8366426892]]

> <FP:PLIF>
1 16 7

>  <PLIF_ligidx>
[[20,20,20],20,30]

$$$$
311
  MOE2022           3D

 48 52  0  0  0  0  0  0  0  0999 V2000
    7.1540   20.8420   18.9640 C   0  0  0  0  0  0  0  0  0  0  0  0
    6.1950   19.8630   18.7220 C   0  0  0  0  0  0  0  0  0  0  0  0
    5.0100   20.1600   18.0330 C   0  0  0  0  0  0  0  0  0  0  0  0
    4.0160   19.1110   17.7710 C   0  0  0  0  0  0  0  0  0  0  0  0
    3.4510   18.9320   16.5010 C   0  0  0  0  0  0  0  0  0  0  0  0
    3.5870   18.2820   18.8110 C   0  0  0  0  0  0  0  0  0  0  0  0
    2.5650   17.3390   18.6390 C   0  0  0  0  0  0  0  0  0  0  0  0
    2.4380   17.9980   16.3000 C   0  0  0  0  0  0  0  0  0  0  0  0
    2.0710   16.5540   19.7680 C   0  0  0  0  0  0  0  0  0  0  0  0
    2.0060   17.2060   17.3600 C   0  0  0  0  0  0  0  0  0  0  0  0
    1.7680   17.8710   14.9460 C   0  0  0  0  0  0  0  0  0  0  0  0
    0.8770   16.0060   19.8120 N   0  0  0  0  0  0  0  0  0  0  0  0
    2.7540   16.3390   20.8700 N   0  0  0  0  0  0  0  0  0  0  0  0
    1.9540   15.6300   21.6380 N   0  5  0  0  0  0  0  0  0  0  0  0
    2.4650   16.9940   13.9950 N   0  0  0  0  0  0  0  0  0  0  0  0
    4.8130   21.4960   17.6380 C   0  0  0  0  0  0  0  0  0  0  0  0
    3.0490   17.4750   12.8370 C   0  0  0  0  0  0  0  0  0  0  0  0
    0.8110   15.4320   20.9930 N   0  0  0  0  0  0  0  0  0  0  0  0
    3.5170   16.5190   11.8400 C   0  0  0  0  0  0  0  0  0  0  0  0
    3.6510   21.8770   17.0340 O   0  0  0  0  0  0  0  0  0  0  0  0
    3.1640   18.6920   12.6920 O   0  0  0  0  0  0  0  0  0  0  0  0
    4.1610   16.9450   10.6660 C   0  0  0  0  0  0  0  0  0  0  0  0
    6.9470   22.1490   18.5320 C   0  0  0  0  0  0  0  0  0  0  0  0
    5.7720   22.4800   17.8690 C   0  0  0  0  0  0  0  0  0  0  0  0
    4.6430   16.0070    9.7600 C   0  0  0  0  0  0  0  0  0  0  0  0
    3.3450   15.1400   12.0480 C   0  0  0  0  0  0  0  0  0  0  0  0
    5.3100   16.4320    8.6360 O   0  0  0  0  0  0  0  0  0  0  0  0
    4.4620   14.6380    9.9900 C   0  0  0  0  0  0  0  0  0  0  0  0
    4.9380   13.7270    9.0920 O   0  0  0  0  0  0  0  0  0  0  0  0
    2.7210   14.6980   13.1870 O   0  0  0  0  0  0  0  0  0  0  0  0
    3.8000   14.1950   11.1300 C   0  0  0  0  0  0  0  0  0  0  0  0
    2.5170   15.5680   14.3300 C   0  0  0  0  0  0  0  0  0  0  0  0
    8.0470   20.5920   19.4770 H   0  0  0  0  0  0  0  0  0  0  0  0
    6.3700   18.8810   19.0680 H   0  0  0  0  0  0  0  0  0  0  0  0
    3.7830   19.5270   15.6890 H   0  0  0  0  0  0  0  0  0  0  0  0
    4.0250   18.3930   19.7670 H   0  0  0  0  0  0  0  0  0  0  0  0
    1.2320   16.4990   17.2040 H   0  0  0  0  0  0  0  0  0  0  0  0
    0.7600   17.5020   15.0820 H   0  0  0  0  0  0  0  0  0  0  0  0
    1.6260   18.8590   14.5300 H   0  0  0  0  0  0  0  0  0  0  0  0
    3.0230   21.1280   17.0110 H   0  0  0  0  0  0  0  0  0  0  0  0
    4.2920   17.9790   10.4740 H   0  0  0  0  0  0  0  0  0  0  0  0
    7.6830   22.8890   18.7120 H   0  0  0  0  0  0  0  0  0  0  0  0
    5.6030   23.4750   17.5470 H   0  0  0  0  0  0  0  0  0  0  0  0
    5.3790   17.4070    8.6200 H   0  0  0  0  0  0  0  0  0  0  0  0
    5.3460   14.1990    8.3400 H   0  0  0  0  0  0  0  0  0  0  0  0
    3.6510   13.1610   11.3000 H   0  0  0  0  0  0  0  0  0  0  0  0
    3.3130   15.3900   15.0410 H   0  0  0  0  0  0  0  0  0  0  0  0
    1.6050   15.2640   14.8270 H   0  0  0  0  0  0  0  0  0  0  0  0
  1  2  1  0  0  0  0
  1 23  2  0  0  0  0
  1 33  1  0  0  0  0
  2  3  2  0  0  0  0
  2 34  1  0  0  0  0
  3  4  1  0  0  0  0
  3 16  1  0  0  0  0
  4  5  1  0  0  0  0
  4  6  2  0  0  0  0
  5  8  2  0  0  0  0
  5 35  1  0  0  0  0
  6  7  1  0  0  0  0
  6 36  1  0  0  0  0
  7  9  1  0  0  0  0
  7 10  2  0  0  0  0
  8 10  1  0  0  0  0
  8 11  1  0  0  0  0
  9 12  1  0  0  0  0
  9 13  2  0  0  0  0
 10 37  1  0  0  0  0
 11 15  1  0  0  0  0
 11 38  1  0  0  0  0
 11 39  1  0  0  0  0
 12 18  2  0  0  0  0
 13 14  1  0  0  0  0
 14 18  1  0  0  0  0
 15 17  1  0  0  0  0
 15 32  1  0  0  0  0
 16 20  1  0  0  0  0
 16 24  2  0  0  0  0
 17 19  1  0  0  0  0
 17 21  2  0  0  0  0
 19 22  2  0  0  0  0
 19 26  1  0  0  0  0
 20 40  1  0  0  0  0
 22 25  1  0  0  0  0
 22 41  1  0  0  0  0
 23 24  1  0  0  0  0
 23 42  1  0  0  0  0
 24 43  1  0  0  0  0
 25 27  1  0  0  0  0
 25 28  2  0  0  0  0
 26 30  1  0  0  0  0
 26 31  2  0  0  0  0
 27 44  1  0  0  0  0
 28 29  1  0  0  0  0
 28 31  1  0  0  0  0
 29 45  1  0  0  0  0
 30 32  1  0  0  0  0
 31 46  1  0  0  0  0
 32 47  1  0  0  0  0
 32 48  1  0  0  0  0
M  CHG  1  14  -1
M  END
> <rseq>
1

> <mseq>
312

> <S>
-6.719168

> <rmsd_refine>
0.8491829

> <E_conf>
-90.03998

> <E_score1>
-11.86992

> <E_refine>
-39.4021

> <E_score2>
-6.719168

>  <$File>
outputs/pdb_4j58_cleaned.pdb_2024_06_17__22_47_40_V2_BS398_MIN1_/SDF/sdf_db.sdf

> <Rec_index>
1

>  <PLIF_raw>
[[18,18,14,14,18,18,4,6,7,10,8,5],[1206,1212,1206,1212,1206,1212,954,954,954,954,954,954],[81,81,81,81,81,81,62,62,62,62,62,62],[2,2,7,7,7,7,10,10,10,10,10,10],[3.9,0.8,1.851457923,1.416021153,3.211542588,3.906011035,0.8,0.8,0.8,0.8,0.8,0.8]]

> <FP:PLIF>
21 17 18 24 25

>  <PLIF_ligidx>
[[4,6,7,10,8,5],[18,18],18,[14,14,18,18],18]

$$$$
288
  MOE2022           3D

 47 50  0  0  0  0  0  0  0  0999 V2000
    6.7600   20.7860   18.0610 C   0  0  0  0  0  0  0  0  0  0  0  0
    5.7930   19.7860   18.0830 C   0  0  0  0  0  0  0  0  0  0  0  0
    4.7300   19.7770   17.1650 C   0  0  0  0  0  0  0  0  0  0  0  0
    3.7580   18.6690   17.1680 C   0  0  0  0  0  0  0  0  0  0  0  0
    3.2640   18.1190   15.9740 C   0  0  0  0  0  0  0  0  0  0  0  0
    3.3110   18.1260   18.3790 C   0  0  0  0  0  0  0  0  0  0  0  0
    2.3670   17.0920   18.4260 C   0  0  0  0  0  0  0  0  0  0  0  0
    2.2980   17.1160   15.9950 C   0  0  0  0  0  0  0  0  0  0  0  0
    1.9380   16.5100   19.6940 C   0  0  0  0  0  0  0  0  0  0  0  0
    1.8490   16.6210   17.2130 C   0  0  0  0  0  0  0  0  0  0  0  0
    1.6900   16.5850   14.7100 C   0  0  0  0  0  0  0  0  0  0  0  0
    0.7440   16.0010   19.9030 N   0  0  0  0  0  0  0  0  0  0  0  0
    2.7080   16.4210   20.7550 N   0  0  0  0  0  0  0  0  0  0  0  0
    1.9650   15.8270   21.6660 N   0  5  0  0  0  0  0  0  0  0  0  0
    2.6570   16.0940   13.7230 N   0  0  0  0  0  0  0  0  0  0  0  0
    4.6520   20.8600   16.2660 C   0  0  0  0  0  0  0  0  0  0  0  0
    2.8660   16.6870   12.4970 C   0  0  0  0  0  0  0  0  0  0  0  0
    0.7690   15.5770   21.1470 N   0  0  0  0  0  0  0  0  0  0  0  0
    3.6260   15.9510   11.4830 C   0  0  0  0  0  0  0  0  0  0  0  0
    3.6020   20.9870   15.4050 O   0  0  0  0  0  0  0  0  0  0  0  0
    2.4130   17.8170   12.3180 O   0  0  0  0  0  0  0  0  0  0  0  0
    4.3710   16.6140   10.4810 C   0  0  0  0  0  0  0  0  0  0  0  0
    6.6810   21.8180   17.1310 C   0  0  0  0  0  0  0  0  0  0  0  0
    5.6220   21.8600   16.2340 C   0  0  0  0  0  0  0  0  0  0  0  0
    3.6460   14.5440   11.4900 C   0  0  0  0  0  0  0  0  0  0  0  0
    4.4110   13.8480   10.5610 C   0  0  0  0  0  0  0  0  0  0  0  0
    4.3800   12.4760   10.5810 O   0  0  0  0  0  0  0  0  0  0  0  0
    4.3550   17.9760   10.3810 O   0  0  0  0  0  0  0  0  0  0  0  0
    5.1870   14.5330    9.6180 C   0  0  0  0  0  0  0  0  0  0  0  0
    5.9790   13.8570    8.7350 O   0  0  0  0  0  0  0  0  0  0  0  0
    5.1600   15.9210    9.5650 C   0  0  0  0  0  0  0  0  0  0  0  0
    7.5610   20.7610   18.7540 H   0  0  0  0  0  0  0  0  0  0  0  0
    5.8760   19.0150   18.8030 H   0  0  0  0  0  0  0  0  0  0  0  0
    3.6200   18.4740   15.0410 H   0  0  0  0  0  0  0  0  0  0  0  0
    3.6980   18.5010   19.2890 H   0  0  0  0  0  0  0  0  0  0  0  0
    1.1020   15.8700   17.2290 H   0  0  0  0  0  0  0  0  0  0  0  0
    1.0060   15.7800   14.9410 H   0  0  0  0  0  0  0  0  0  0  0  0
    1.0610   17.3530   14.2810 H   0  0  0  0  0  0  0  0  0  0  0  0
    3.0670   15.1640   13.8990 H   0  0  0  0  0  0  0  0  0  0  0  0
    2.9450   20.2800   15.5650 H   0  0  0  0  0  0  0  0  0  0  0  0
    7.4240   22.5740   17.1140 H   0  0  0  0  0  0  0  0  0  0  0  0
    5.5460   22.6530   15.5360 H   0  0  0  0  0  0  0  0  0  0  0  0
    3.0740   14.0020   12.1980 H   0  0  0  0  0  0  0  0  0  0  0  0
    4.9600   12.0880    9.9010 H   0  0  0  0  0  0  0  0  0  0  0  0
    3.6860   18.3500   10.9930 H   0  0  0  0  0  0  0  0  0  0  0  0
    5.9370   12.8940    8.8840 H   0  0  0  0  0  0  0  0  0  0  0  0
    5.7280   16.4420    8.8380 H   0  0  0  0  0  0  0  0  0  0  0  0
  1  2  1  0  0  0  0
  1 23  2  0  0  0  0
  1 32  1  0  0  0  0
  2  3  2  0  0  0  0
  2 33  1  0  0  0  0
  3  4  1  0  0  0  0
  3 16  1  0  0  0  0
  4  5  1  0  0  0  0
  4  6  2  0  0  0  0
  5  8  2  0  0  0  0
  5 34  1  0  0  0  0
  6  7  1  0  0  0  0
  6 35  1  0  0  0  0
  7  9  1  0  0  0  0
  7 10  2  0  0  0  0
  8 10  1  0  0  0  0
  8 11  1  0  0  0  0
  9 12  1  0  0  0  0
  9 13  2  0  0  0  0
 10 36  1  0  0  0  0
 11 15  1  0  0  0  0
 11 37  1  0  0  0  0
 11 38  1  0  0  0  0
 12 18  2  0  0  0  0
 13 14  1  0  0  0  0
 14 18  1  0  0  0  0
 15 17  1  0  0  0  0
 15 39  1  0  0  0  0
 16 20  1  0  0  0  0
 16 24  2  0  0  0  0
 17 19  1  0  0  0  0
 17 21  2  0  0  0  0
 19 22  1  0  0  0  0
 19 25  2  0  0  0  0
 20 40  1  0  0  0  0
 22 28  1  0  0  0  0
 22 31  2  0  0  0  0
 23 24  1  0  0  0  0
 23 41  1  0  0  0  0
 24 42  1  0  0  0  0
 25 26  1  0  0  0  0
 25 43  1  0  0  0  0
 26 27  1  0  0  0  0
 26 29  2  0  0  0  0
 27 44  1  0  0  0  0
 28 45  1  0  0  0  0
 29 30  1  0  0  0  0
 29 31  1  0  0  0  0
 30 46  1  0  0  0  0
 31 47  1  0  0  0  0
M  CHG  1  14  -1
M  END
> <rseq>
1

> <mseq>
289

> <S>
-6.510232

> <rmsd_refine>
1.61442

> <E_conf>
-81.82563

> <E_score1>
-11.67499

> <E_refine>
-38.505

> <E_score2>
-6.510232

>  <$File>
outputs/pdb_4j58_cleaned.pdb_2024_06_17__22_47_40_V2_BS398_MIN1_/SDF/sdf_db.sdf

> <Rec_index>
1

>  <PLIF_raw>
[[18,14,14,18,18],[1206,1206,1212,1206,1212],[81,81,81,81,81],[2,7,7,7,7],[6.5,1.541335935,0.9278340452,3.603362435,3.40369532]]

> <FP:PLIF>
17 18 24 25

>  <PLIF_ligidx>
[18,18,[14,14,18,18],18]

$$$$
289
  MOE2022           3D

 52 54  0  0  0  0  0  0  0  0999 V2000
    6.5830   20.0150   18.8650 C   0  0  0  0  0  0  0  0  0  0  0  0
    7.5570   20.8250   18.3370 C   0  0  0  0  0  0  0  0  0  0  0  0
    5.3510   19.8480   18.1960 C   0  0  0  0  0  0  0  0  0  0  0  0
    4.3490   19.0020   18.7150 C   0  0  0  0  0  0  0  0  0  0  0  0
    3.1620   18.8140   18.0440 C   0  0  0  0  0  0  0  0  0  0  0  0
    7.3390   21.5090   17.1270 C   0  0  0  0  0  0  0  0  0  0  0  0
    8.4430   22.4060   16.6080 C   0  0  0  0  0  0  0  0  0  0  0  0
    6.1350   21.3650   16.4370 C   0  0  0  0  0  0  0  0  0  0  0  0
    2.9700   19.5910   16.8520 C   0  0  0  0  0  0  0  0  0  0  0  0
    5.9170   22.0660   15.1730 C   0  0  0  0  0  0  0  0  0  0  0  0
    2.1840   17.8440   18.5730 C   0  0  0  0  0  0  0  0  0  0  0  0
    6.6290   21.7680   14.1710 O   0  0  0  0  0  0  0  0  0  0  0  0
    5.0540   22.9800   15.1040 O   0  5  0  0  0  0  0  0  0  0  0  0
    2.5520   17.0390   19.4760 O   0  5  0  0  0  0  0  0  0  0  0  0
    0.9940   17.7940   18.1560 O   0  0  0  0  0  0  0  0  0  0  0  0
    1.7440   19.5680   16.2140 N   0  0  0  0  0  0  0  0  0  0  0  0
    5.1140   20.5240   16.9770 C   0  0  0  0  0  0  0  0  0  0  0  0
    1.6200   19.7160   14.7720 C   0  0  0  0  0  0  0  0  0  0  0  0
    3.9090   20.3690   16.3400 N   0  0  0  0  0  0  0  0  0  0  0  0
    2.0270   18.4670   14.0170 C   0  0  0  0  0  0  0  0  0  0  0  0
    2.8090   18.5790   12.8710 C   0  0  0  0  0  0  0  0  0  0  0  0
    3.1790   17.4450   12.1600 C   0  0  0  0  0  0  0  0  0  0  0  0
    2.7840   16.1690   12.5920 C   0  0  0  0  0  0  0  0  0  0  0  0
    3.1890   14.9660   11.8640 C   0  0  0  0  0  0  0  0  0  0  0  0
    1.6180   17.2030   14.4450 C   0  0  0  0  0  0  0  0  0  0  0  0
    1.9950   16.0650   13.7430 C   0  0  0  0  0  0  0  0  0  0  0  0
    2.6060   13.8880   11.9480 O   0  0  0  0  0  0  0  0  0  0  0  0
    4.2870   15.0650   11.0510 N   0  0  0  0  0  0  0  0  0  0  0  0
    4.8020   14.0000   10.2070 C   0  0  0  0  0  0  0  0  0  0  0  0
    5.9770   14.4730    9.3450 C   0  0  0  0  0  0  0  0  0  0  0  0
    5.5900   15.6460    8.4310 C   0  0  0  0  0  0  0  0  0  0  0  0
    6.7570   19.5050   19.7760 H   0  0  0  0  0  0  0  0  0  0  0  0
    8.4800   20.9380   18.8460 H   0  0  0  0  0  0  0  0  0  0  0  0
    4.5210   18.5090   19.6300 H   0  0  0  0  0  0  0  0  0  0  0  0
    9.1990   22.5880   17.3720 H   0  0  0  0  0  0  0  0  0  0  0  0
    8.9310   21.9510   15.7470 H   0  0  0  0  0  0  0  0  0  0  0  0
    8.0380   23.3720   16.3080 H   0  0  0  0  0  0  0  0  0  0  0  0
    1.0640   18.9120   16.6330 H   0  0  0  0  0  0  0  0  0  0  0  0
    0.5930   19.9540   14.5330 H   0  0  0  0  0  0  0  0  0  0  0  0
    2.1930   20.5690   14.4330 H   0  0  0  0  0  0  0  0  0  0  0  0
    3.1240   19.5340   12.5360 H   0  0  0  0  0  0  0  0  0  0  0  0
    3.7610   17.5630   11.2840 H   0  0  0  0  0  0  0  0  0  0  0  0
    1.0190   17.1050   15.3150 H   0  0  0  0  0  0  0  0  0  0  0  0
    1.6820   15.1130   14.0890 H   0  0  0  0  0  0  0  0  0  0  0  0
    4.7540   15.9790   10.9770 H   0  0  0  0  0  0  0  0  0  0  0  0
    5.1350   13.1720   10.8340 H   0  0  0  0  0  0  0  0  0  0  0  0
    4.0060   13.6370    9.5550 H   0  0  0  0  0  0  0  0  0  0  0  0
    6.7960   14.7800    9.9960 H   0  0  0  0  0  0  0  0  0  0  0  0
    6.3160   13.6390    8.7300 H   0  0  0  0  0  0  0  0  0  0  0  0
    6.4450   15.9470    7.8290 H   0  0  0  0  0  0  0  0  0  0  0  0
    4.7770   15.3460    7.7680 H   0  0  0  0  0  0  0  0  0  0  0  0
    5.2730   16.5050    9.0230 H   0  0  0  0  0  0  0  0  0  0  0  0
  1  2  2  0  0  0  0
  1  3  1  0  0  0  0
  1 32  1  0  0  0  0
  2  6  1  0  0  0  0
  2 33  1  0  0  0  0
  3  4  1  0  0  0  0
  3 17  2  0  0  0  0
  4  5  2  0  0  0  0
  4 34  1  0  0  0  0
  5  9  1  0  0  0  0
  5 11  1  0  0  0  0
  6  7  1  0  0  0  0
  6  8  2  0  0  0  0
  7 35  1  0  0  0  0
  7 36  1  0  0  0  0
  7 37  1  0  0  0  0
  8 10  1  0  0  0  0
  8 17  1  0  0  0  0
  9 16  1  0  0  0  0
  9 19  2  0  0  0  0
 10 12  2  0  0  0  0
 10 13  1  0  0  0  0
 11 14  1  0  0  0  0
 11 15  2  0  0  0  0
 16 18  1  0  0  0  0
 16 38  1  0  0  0  0
 17 19  1  0  0  0  0
 18 20  1  0  0  0  0
 18 39  1  0  0  0  0
 18 40  1  0  0  0  0
 20 21  1  0  0  0  0
 20 25  2  0  0  0  0
 21 22  2  0  0  0  0
 21 41  1  0  0  0  0
 22 23  1  0  0  0  0
 22 42  1  0  0  0  0
 23 24  1  0  0  0  0
 23 26  2  0  0  0  0
 24 27  2  0  0  0  0
 24 28  1  0  0  0  0
 25 26  1  0  0  0  0
 25 43  1  0  0  0  0
 26 44  1  0  0  0  0
 28 29  1  0  0  0  0
 28 45  1  0  0  0  0
 29 30  1  0  0  0  0
 29 46  1  0  0  0  0
 29 47  1  0  0  0  0
 30 31  1  0  0  0  0
 30 48  1  0  0  0  0
 30 49  1  0  0  0  0
 31 50  1  0  0  0  0
 31 51  1  0  0  0  0
 31 52  1  0  0  0  0
M  CHG  1  13  -1
M  CHG  1  14  -1
M  END
> <rseq>
1

> <mseq>
290

> <S>
-6.288227

> <rmsd_refine>
0.8867263

> <E_conf>
-224.3577

> <E_score1>
-9.825145

> <E_refine>
-35.93909

> <E_score2>
-6.288227

>  <$File>
outputs/pdb_4j58_cleaned.pdb_2024_06_17__22_47_40_V2_BS398_MIN1_/SDF/sdf_db.sdf

> <Rec_index>
1

>  <PLIF_raw>
[[12,12,12,12],[826,829,826,829],[54,54,54,54],[2,2,7,7],[6.9,1.9,5.328824282,3.179831175]]

> <FP:PLIF>
6 19 1 16

>  <PLIF_ligidx>
[[12,12],[12,12],[12,12],12]

$$$$
290
  MOE2022           3D

 55 57  0  0  1  0  0  0  0  0999 V2000
    2.7190   16.2170   20.9710 C   0  0  0  0  0  0  0  0  0  0  0  0
    1.5110   15.7060   21.4190 C   0  0  0  0  0  0  0  0  0  0  0  0
    2.7900   16.8880   19.7580 C   0  0  0  0  0  0  0  0  0  0  0  0
    0.3690   15.8490   20.6380 C   0  0  0  0  0  0  0  0  0  0  0  0
    0.4430   16.5070   19.4140 C   0  0  0  0  0  0  0  0  0  0  0  0
    1.6500   17.0450   18.9670 C   0  0  0  0  0  0  0  0  0  0  0  0
    1.6870   17.7780   17.6320 C   0  0  1  0  0  0  0  0  0  0  0  0
    2.8900   18.6040   17.4760 N   0  0  0  0  0  0  0  0  0  0  0  0
    1.4800   16.7880   16.4620 C   0  0  0  0  0  0  0  0  0  0  0  0
    2.8840   19.9430   17.5530 C   0  0  0  0  0  0  0  0  0  0  0  0
    1.7450   17.2680   15.0630 N   0  0  0  0  0  0  0  0  0  0  0  0
    1.0720   18.3620   14.5250 C   0  0  0  0  0  0  0  0  0  0  0  0
    0.1980   19.0020   15.3130 O   0  0  0  0  0  0  0  0  0  0  0  0
    2.6340   16.5310   14.2390 C   0  0  0  0  0  0  0  0  0  0  0  0
    4.2390   20.6570   17.6590 C   0  0  2  0  0  0  0  0  0  0  0  0
    3.3030   15.6340   14.7770 O   0  0  0  0  0  0  0  0  0  0  0  0
    2.7270   16.8760   12.8370 C   0  0  0  0  0  0  0  0  0  0  0  0
    3.4380   16.0100   11.9170 C   0  0  0  0  0  0  0  0  0  0  0  0
    3.6010   14.8080   12.0790 O   0  0  0  0  0  0  0  0  0  0  0  0
    1.8530   20.6110   17.5600 O   0  0  0  0  0  0  0  0  0  0  0  0
    1.2720   18.7660   13.2260 C   0  0  0  0  0  0  0  0  0  0  0  0
    3.9370   16.5650   10.7760 O   0  0  0  0  0  0  0  0  0  0  0  0
    2.1000   18.0170   12.3790 C   0  0  0  0  0  0  0  0  0  0  0  0
    4.5040   15.7980    9.6730 C   0  0  0  0  0  0  0  0  0  0  0  0
    5.2080   20.3670   16.5100 C   0  0  0  0  0  0  0  0  0  0  0  0
    5.9410   15.3340    9.9240 C   0  0  0  0  0  0  0  0  0  0  0  0
    5.0400   20.3470   18.9340 C   0  0  0  0  0  0  0  0  0  0  0  0
    6.5120   20.6220   18.5930 C   0  0  2  0  0  0  0  0  0  0  0  0
    6.5820   20.5990   17.0840 C   0  0  0  0  0  0  0  0  0  0  0  0
    7.3820   19.6440   19.2000 O   0  0  0  0  0  0  0  0  0  0  0  0
    7.5390   20.9190   16.4360 O   0  0  0  0  0  0  0  0  0  0  0  0
    3.5910   16.0940   21.5550 H   0  0  0  0  0  0  0  0  0  0  0  0
    1.4730   15.2110   22.3520 H   0  0  0  0  0  0  0  0  0  0  0  0
    3.7220   17.2760   19.4480 H   0  0  0  0  0  0  0  0  0  0  0  0
   -0.5580   15.4620   20.9700 H   0  0  0  0  0  0  0  0  0  0  0  0
   -0.4300   16.6010   18.8210 H   0  0  0  0  0  0  0  0  0  0  0  0
    0.8280   18.4330   17.6420 H   0  0  0  0  0  0  0  0  0  0  0  0
    3.7770   18.1270   17.4520 H   0  0  0  0  0  0  0  0  0  0  0  0
    2.0790   15.9210   16.6920 H   0  0  0  0  0  0  0  0  0  0  0  0
    0.4690   16.4080   16.5120 H   0  0  0  0  0  0  0  0  0  0  0  0
    0.1710   18.6220   16.2110 H   0  0  0  0  0  0  0  0  0  0  0  0
    4.0620   21.7340   17.6380 H   0  0  0  0  0  0  0  0  0  0  0  0
    0.7770   19.6250   12.8530 H   0  0  0  0  0  0  0  0  0  0  0  0
    2.2050   18.3200   11.3690 H   0  0  0  0  0  0  0  0  0  0  0  0
    3.8730   14.9290    9.4820 H   0  0  0  0  0  0  0  0  0  0  0  0
    4.4940   16.4280    8.7830 H   0  0  0  0  0  0  0  0  0  0  0  0
    5.1200   19.3340   16.2060 H   0  0  0  0  0  0  0  0  0  0  0  0
    5.0090   20.9850   15.6450 H   0  0  0  0  0  0  0  0  0  0  0  0
    6.2950   14.7750    9.0580 H   0  0  0  0  0  0  0  0  0  0  0  0
    6.5860   16.1970   10.0770 H   0  0  0  0  0  0  0  0  0  0  0  0
    5.9770   14.6870   10.8000 H   0  0  0  0  0  0  0  0  0  0  0  0
    4.7070   20.9700   19.7610 H   0  0  0  0  0  0  0  0  0  0  0  0
    4.9230   19.2950   19.1960 H   0  0  0  0  0  0  0  0  0  0  0  0
    6.8050   21.5990   18.9530 H   0  0  0  0  0  0  0  0  0  0  0  0
    8.3000   19.7980   18.9160 H   0  0  0  0  0  0  0  0  0  0  0  0
  1  2  2  0  0  0  0
  1  3  1  0  0  0  0
  1 32  1  0  0  0  0
  2  4  1  0  0  0  0
  2 33  1  0  0  0  0
  3  6  2  0  0  0  0
  3 34  1  0  0  0  0
  4  5  2  0  0  0  0
  4 35  1  0  0  0  0
  5  6  1  0  0  0  0
  5 36  1  0  0  0  0
  6  7  1  0  0  0  0
  7  8  1  0  0  0  0
  7  9  1  0  0  0  0
  7 37  1  0  0  0  0
  8 10  1  0  0  0  0
  8 38  1  0  0  0  0
  9 11  1  0  0  0  0
  9 39  1  0  0  0  0
  9 40  1  0  0  0  0
 10 15  1  0  0  0  0
 10 20  2  0  0  0  0
 11 12  1  0  0  0  0
 11 14  1  0  0  0  0
 12 13  1  0  0  0  0
 12 21  2  0  0  0  0
 13 41  1  0  0  0  0
 14 16  2  0  0  0  0
 14 17  1  0  0  0  0
 15 25  1  0  0  0  0
 15 27  1  0  0  0  0
 15 42  1  0  0  0  0
 17 18  1  0  0  0  0
 17 23  2  0  0  0  0
 18 19  2  0  0  0  0
 18 22  1  0  0  0  0
 21 23  1  0  0  0  0
 21 43  1  0  0  0  0
 22 24  1  0  0  0  0
 23 44  1  0  0  0  0
 24 26  1  0  0  0  0
 24 45  1  0  0  0  0
 24 46  1  0  0  0  0
 25 29  1  0  0  0  0
 25 47  1  0  0  0  0
 25 48  1  0  0  0  0
 26 49  1  0  0  0  0
 26 50  1  0  0  0  0
 26 51  1  0  0  0  0
 27 28  1  0  0  0  0
 27 52  1  0  0  0  0
 27 53  1  0  0  0  0
 28 29  1  0  0  0  0
 28 30  1  0  0  0  0
 28 54  1  0  0  0  0
 29 31  2  0  0  0  0
 30 55  1  0  0  0  0
M  END
> <rseq>
1

> <mseq>
291

> <S>
-7.099964

> <rmsd_refine>
1.017872

> <E_conf>
-50.28967

> <E_score1>
-9.996579

> <E_refine>
-34.9117

> <E_score2>
-7.099964

>  <$File>
outputs/pdb_4j58_cleaned.pdb_2024_06_17__22_47_40_V2_BS398_MIN1_/SDF/sdf_db.sdf

> <Rec_index>
1

>  <PLIF_raw>
[31,826,54,2,1.2]

> <FP:PLIF>
6

>  <PLIF_ligidx>
31

$$$$
291
  MOE2022           3D

 56 58  0  0  1  0  0  0  0  0999 V2000
    7.2380   21.0460   19.4150 C   0  0  0  0  0  0  0  0  0  0  0  0
    6.4220   19.9690   19.0890 C   0  0  0  0  0  0  0  0  0  0  0  0
    5.1220   20.2020   18.6450 C   0  0  0  0  0  0  0  0  0  0  0  0
    4.3690   19.1060   18.2570 O   0  0  0  0  0  0  0  0  0  0  0  0
    3.2160   19.1440   17.3460 C   0  0  1  0  0  0  0  0  0  0  0  0
    4.6190   21.5050   18.5680 C   0  0  0  0  0  0  0  0  0  0  0  0
    6.7530   22.3470   19.3130 C   0  0  0  0  0  0  0  0  0  0  0  0
    5.4440   22.5750   18.8960 C   0  0  0  0  0  0  0  0  0  0  0  0
    3.6280   19.5350   15.9210 C   0  0  0  0  0  0  0  0  0  0  0  0
    4.4950   20.3950   15.7550 O   0  0  0  0  0  0  0  0  0  0  0  0
    2.4310   17.8210   17.4390 C   0  0  2  0  0  0  0  0  0  0  0  0
    2.9790   19.0080   14.8550 N   0  0  0  0  0  0  0  0  0  0  0  0
    1.3640   17.7080   16.3280 C   0  0  2  0  0  0  0  0  0  0  0  0
    2.1340   17.7890   14.9830 C   0  0  1  0  0  0  0  0  0  0  0  0
    1.8540   17.7010   18.7300 O   0  0  0  0  0  0  0  0  0  0  0  0
    3.1850   19.5930   13.5150 C   0  0  0  0  0  0  0  0  0  0  0  0
    0.3760   18.8140   16.4150 N   0  0  0  0  0  0  0  0  0  0  0  0
    0.6650   16.3310   16.4490 C   0  0  0  0  0  0  0  0  0  0  0  0
   -0.4980   16.2070   15.6510 O   0  0  0  0  0  0  0  0  0  0  0  0
    1.2100   17.6030   13.8260 O   0  0  0  0  0  0  0  0  0  0  0  0
    1.6100   16.8330   12.5840 C   0  0  2  0  0  0  0  0  0  0  0  0
    2.9070   16.0150   12.8060 C   0  0  0  0  0  0  0  0  0  0  0  0
    1.5190   17.7680   11.3660 C   0  0  0  0  0  0  0  0  0  0  0  0
    0.8800   18.8170   11.4280 O   0  0  0  0  0  0  0  0  0  0  0  0
    3.4030   15.1440   11.6520 C   0  0  0  0  0  0  0  0  0  0  0  0
    2.0590   17.5170   10.1560 O   0  0  0  0  0  0  0  0  0  0  0  0
    2.8400   16.4380    9.6060 C   0  0  0  0  0  0  0  0  0  0  0  0
    3.9810   16.0050   10.5210 C   0  0  2  0  0  0  0  0  0  0  0  0
    5.1020   15.2830    9.7690 C   0  0  0  0  0  0  0  0  0  0  0  0
    4.7870   14.3750    8.9700 O   0  0  0  0  0  0  0  0  0  0  0  0
    6.2680   15.6560   10.0290 O   0  5  0  0  0  0  0  0  0  0  0  0
    8.2350   20.8790   19.7310 H   0  0  0  0  0  0  0  0  0  0  0  0
    6.7930   18.9820   19.1610 H   0  0  0  0  0  0  0  0  0  0  0  0
    2.5500   19.9150   17.7080 H   0  0  0  0  0  0  0  0  0  0  0  0
    3.6260   21.6880   18.2520 H   0  0  0  0  0  0  0  0  0  0  0  0
    7.3800   23.1640   19.5550 H   0  0  0  0  0  0  0  0  0  0  0  0
    5.0770   23.5660   18.8230 H   0  0  0  0  0  0  0  0  0  0  0  0
    3.1460   17.0060   17.3130 H   0  0  0  0  0  0  0  0  0  0  0  0
    2.8060   16.9460   15.0050 H   0  0  0  0  0  0  0  0  0  0  0  0
    1.2520   18.4390   18.8650 H   0  0  0  0  0  0  0  0  0  0  0  0
    3.8770   20.4230   13.5020 H   0  0  0  0  0  0  0  0  0  0  0  0
    3.5740   18.8710   12.8130 H   0  0  0  0  0  0  0  0  0  0  0  0
    2.2560   19.9830   13.1240 H   0  0  0  0  0  0  0  0  0  0  0  0
    0.8470   19.7000   16.3020 H   0  0  0  0  0  0  0  0  0  0  0  0
   -0.2890   18.7110   15.6600 H   0  0  0  0  0  0  0  0  0  0  0  0
    1.3710   15.5590   16.1510 H   0  0  0  0  0  0  0  0  0  0  0  0
    0.3710   16.1500   17.4830 H   0  0  0  0  0  0  0  0  0  0  0  0
   -1.1460   16.8450   15.9610 H   0  0  0  0  0  0  0  0  0  0  0  0
    0.8230   16.1040   12.4430 H   0  0  0  0  0  0  0  0  0  0  0  0
    3.7110   16.6880   13.0910 H   0  0  0  0  0  0  0  0  0  0  0  0
    2.7210   15.3400   13.6430 H   0  0  0  0  0  0  0  0  0  0  0  0
    4.1900   14.4920   12.0320 H   0  0  0  0  0  0  0  0  0  0  0  0
    2.6020   14.4980   11.2890 H   0  0  0  0  0  0  0  0  0  0  0  0
    2.1880   15.5920    9.3810 H   0  0  0  0  0  0  0  0  0  0  0  0
    3.2650   16.7910    8.6660 H   0  0  0  0  0  0  0  0  0  0  0  0
    4.4230   16.9110   10.9360 H   0  0  0  0  0  0  0  0  0  0  0  0
  1  2  1  0  0  0  0
  1  7  2  0  0  0  0
  1 32  1  0  0  0  0
  2  3  2  0  0  0  0
  2 33  1  0  0  0  0
  3  4  1  0  0  0  0
  3  6  1  0  0  0  0
  4  5  1  0  0  0  0
  5  9  1  0  0  0  0
  5 11  1  0  0  0  0
  5 34  1  0  0  0  0
  6  8  2  0  0  0  0
  6 35  1  0  0  0  0
  7  8  1  0  0  0  0
  7 36  1  0  0  0  0
  8 37  1  0  0  0  0
  9 10  2  0  0  0  0
  9 12  1  0  0  0  0
 11 13  1  0  0  0  0
 11 15  1  0  0  0  0
 11 38  1  0  0  0  0
 12 14  1  0  0  0  0
 12 16  1  0  0  0  0
 13 14  1  0  0  0  0
 13 17  1  0  0  0  0
 13 18  1  0  0  0  0
 14 20  1  0  0  0  0
 14 39  1  0  0  0  0
 15 40  1  0  0  0  0
 16 41  1  0  0  0  0
 16 42  1  0  0  0  0
 16 43  1  0  0  0  0
 17 44  1  0  0  0  0
 17 45  1  0  0  0  0
 18 19  1  0  0  0  0
 18 46  1  0  0  0  0
 18 47  1  0  0  0  0
 19 48  1  0  0  0  0
 20 21  1  0  0  0  0
 21 22  1  0  0  0  0
 21 23  1  0  0  0  0
 21 49  1  0  0  0  0
 22 25  1  0  0  0  0
 22 50  1  0  0  0  0
 22 51  1  0  0  0  0
 23 24  2  0  0  0  0
 23 26  1  0  0  0  0
 25 28  1  0  0  0  0
 25 52  1  0  0  0  0
 25 53  1  0  0  0  0
 26 27  1  0  0  0  0
 27 28  1  0  0  0  0
 27 54  1  0  0  0  0
 27 55  1  0  0  0  0
 28 29  1  0  0  0  0
 28 56  1  0  0  0  0
 29 30  2  0  0  0  0
 29 31  1  0  0  0  0
M  CHG  1  31  -1
M  END
> <rseq>
1

> <mseq>
292

> <S>
-5.86064

> <rmsd_refine>
1.515126

> <E_conf>
52.20412

> <E_score1>
-11.24609

> <E_refine>
-32.8688

> <E_score2>
-5.86064

>  <$File>
outputs/pdb_4j58_cleaned.pdb_2024_06_17__22_47_40_V2_BS398_MIN1_/SDF/sdf_db.sdf

> <Rec_index>
1

>  <PLIF_raw>
[[31,31],[823,823],[54,54],[2,7],[5.9,3.6969068]]

> <FP:PLIF>
6 19 1 16

>  <PLIF_ligidx>
[31,31,31,31]

$$$$
292
  MOE2022           3D

 57 59  0  0  1  0  0  0  0  0999 V2000
    2.7230   16.2220   20.9690 C   0  0  0  0  0  0  0  0  0  0  0  0
    1.5020   15.7030   21.3700 C   0  0  0  0  0  0  0  0  0  0  0  0
    2.8290   16.9210   19.7750 C   0  0  0  0  0  0  0  0  0  0  0  0
    0.3830   15.8700   20.5630 C   0  0  0  0  0  0  0  0  0  0  0  0
    0.4920   16.5570   19.3580 C   0  0  0  0  0  0  0  0  0  0  0  0
    1.7120   17.1010   18.9560 C   0  0  0  0  0  0  0  0  0  0  0  0
    1.7890   17.8600   17.6360 C   0  0  1  0  0  0  0  0  0  0  0  0
    3.0230   18.6490   17.5080 N   0  0  0  0  0  0  0  0  0  0  0  0
    1.5570   16.8990   16.4470 C   0  0  0  0  0  0  0  0  0  0  0  0
    3.0630   19.9850   17.6370 C   0  0  0  0  0  0  0  0  0  0  0  0
    1.8550   17.3830   15.0550 N   0  0  0  0  0  0  0  0  0  0  0  0
    1.2480   18.5210   14.5310 C   0  0  0  0  0  0  0  0  0  0  0  0
    0.4160   19.2070   15.3260 O   0  0  0  0  0  0  0  0  0  0  0  0
    2.6930   16.6000   14.2210 C   0  0  0  0  0  0  0  0  0  0  0  0
    4.4370   20.6460   17.8290 C   0  0  0  0  0  0  0  0  0  0  0  0
    3.3020   15.6540   14.7470 O   0  0  0  0  0  0  0  0  0  0  0  0
    2.8080   16.9560   12.8230 C   0  0  0  0  0  0  0  0  0  0  0  0
    3.4720   16.0640   11.8940 C   0  0  0  0  0  0  0  0  0  0  0  0
    3.5900   14.8550   12.0510 O   0  0  0  0  0  0  0  0  0  0  0  0
    2.0560   20.6890   17.6280 O   0  0  0  0  0  0  0  0  0  0  0  0
    1.4690   18.9250   13.2350 C   0  0  0  0  0  0  0  0  0  0  0  0
    3.9840   16.6010   10.7510 O   0  0  0  0  0  0  0  0  0  0  0  0
    2.2480   18.1370   12.3790 C   0  0  0  0  0  0  0  0  0  0  0  0
    4.5380   15.8190    9.6520 C   0  0  0  0  0  0  0  0  0  0  0  0
    5.3930   20.4580   16.6520 C   0  0  0  0  0  0  0  0  0  0  0  0
    5.9610   15.3220    9.9130 C   0  0  0  0  0  0  0  0  0  0  0  0
    5.2460   20.1120   19.0160 C   0  0  0  0  0  0  0  0  0  0  0  0
    6.6500   20.6550   18.7590 C   0  0  2  0  0  0  0  0  0  0  0  0
    6.8040   20.6480   17.2290 C   0  0  2  0  0  0  0  0  0  0  0  0
    7.6270   19.8560   19.3940 O   0  0  0  0  0  0  0  0  0  0  0  0
    7.3940   21.8450   16.7630 O   0  0  0  0  0  0  0  0  0  0  0  0
    3.5780   16.0830   21.5740 H   0  0  0  0  0  0  0  0  0  0  0  0
    1.4390   15.1850   22.2890 H   0  0  0  0  0  0  0  0  0  0  0  0
    3.7700   17.3140   19.5020 H   0  0  0  0  0  0  0  0  0  0  0  0
   -0.5540   15.4760   20.8610 H   0  0  0  0  0  0  0  0  0  0  0  0
   -0.3650   16.6700   18.7450 H   0  0  0  0  0  0  0  0  0  0  0  0
    0.9540   18.5440   17.6520 H   0  0  0  0  0  0  0  0  0  0  0  0
    3.8940   18.1450   17.4930 H   0  0  0  0  0  0  0  0  0  0  0  0
    2.1130   16.0010   16.6710 H   0  0  0  0  0  0  0  0  0  0  0  0
    0.5300   16.5620   16.4800 H   0  0  0  0  0  0  0  0  0  0  0  0
    0.3750   18.8260   16.2230 H   0  0  0  0  0  0  0  0  0  0  0  0
    4.2870   21.7170   17.9790 H   0  0  0  0  0  0  0  0  0  0  0  0
    1.0240   19.8160   12.8720 H   0  0  0  0  0  0  0  0  0  0  0  0
    2.3700   18.4440   11.3710 H   0  0  0  0  0  0  0  0  0  0  0  0
    3.8860   14.9660    9.4590 H   0  0  0  0  0  0  0  0  0  0  0  0
    4.5480   16.4490    8.7610 H   0  0  0  0  0  0  0  0  0  0  0  0
    5.2960   19.4410   16.2760 H   0  0  0  0  0  0  0  0  0  0  0  0
    5.1730   21.1690   15.8540 H   0  0  0  0  0  0  0  0  0  0  0  0
    6.3100   14.7570    9.0490 H   0  0  0  0  0  0  0  0  0  0  0  0
    6.6230   16.1700   10.0750 H   0  0  0  0  0  0  0  0  0  0  0  0
    5.9750   14.6730   10.7880 H   0  0  0  0  0  0  0  0  0  0  0  0
    4.8520   20.4760   19.9630 H   0  0  0  0  0  0  0  0  0  0  0  0
    5.2660   19.0230   19.0060 H   0  0  0  0  0  0  0  0  0  0  0  0
    6.7100   21.6790   19.1300 H   0  0  0  0  0  0  0  0  0  0  0  0
    7.4340   19.8130   16.9260 H   0  0  0  0  0  0  0  0  0  0  0  0
    8.4950   20.2310   19.2130 H   0  0  0  0  0  0  0  0  0  0  0  0
    6.8340   22.5830   17.0130 H   0  0  0  0  0  0  0  0  0  0  0  0
  1  2  2  0  0  0  0
  1  3  1  0  0  0  0
  1 32  1  0  0  0  0
  2  4  1  0  0  0  0
  2 33  1  0  0  0  0
  3  6  2  0  0  0  0
  3 34  1  0  0  0  0
  4  5  2  0  0  0  0
  4 35  1  0  0  0  0
  5  6  1  0  0  0  0
  5 36  1  0  0  0  0
  6  7  1  0  0  0  0
  7  8  1  0  0  0  0
  7  9  1  0  0  0  0
  7 37  1  0  0  0  0
  8 10  1  0  0  0  0
  8 38  1  0  0  0  0
  9 11  1  0  0  0  0
  9 39  1  0  0  0  0
  9 40  1  0  0  0  0
 10 15  1  0  0  0  0
 10 20  2  0  0  0  0
 11 12  1  0  0  0  0
 11 14  1  0  0  0  0
 12 13  1  0  0  0  0
 12 21  2  0  0  0  0
 13 41  1  0  0  0  0
 14 16  2  0  0  0  0
 14 17  1  0  0  0  0
 15 25  1  0  0  0  0
 15 27  1  0  0  0  0
 15 42  1  0  0  0  0
 17 18  1  0  0  0  0
 17 23  2  0  0  0  0
 18 19  2  0  0  0  0
 18 22  1  0  0  0  0
 21 23  1  0  0  0  0
 21 43  1  0  0  0  0
 22 24  1  0  0  0  0
 23 44  1  0  0  0  0
 24 26  1  0  0  0  0
 24 45  1  0  0  0  0
 24 46  1  0  0  0  0
 25 29  1  0  0  0  0
 25 47  1  0  0  0  0
 25 48  1  0  0  0  0
 26 49  1  0  0  0  0
 26 50  1  0  0  0  0
 26 51  1  0  0  0  0
 27 28  1  0  0  0  0
 27 52  1  0  0  0  0
 27 53  1  0  0  0  0
 28 29  1  0  0  0  0
 28 30  1  0  0  0  0
 28 54  1  0  0  0  0
 29 31  1  0  0  0  0
 29 55  1  0  0  0  0
 30 56  1  0  0  0  0
 31 57  1  0  0  0  0
M  END
> <rseq>
1

> <mseq>
293

> <S>
-7.261212

> <rmsd_refine>
1.015857

> <E_conf>
-63.95867

> <E_score1>
-9.994884

> <E_refine>
-35.252

> <E_score2>
-7.261212

>  <$File>
outputs/pdb_4j58_cleaned.pdb_2024_06_17__22_47_40_V2_BS398_MIN1_/SDF/sdf_db.sdf

> <Rec_index>
1

>  <PLIF_raw>
[[],[],[],[],[]]

>  <PLIF_ligidx>
[]

$$$$
293
  MOE2022           3D

 49 51  0  0  1  0  0  0  0  0999 V2000
    1.9740   16.5430   19.6650 C   0  0  0  0  0  0  0  0  0  0  0  0
    2.4800   17.0800   18.4830 C   0  0  0  0  0  0  0  0  0  0  0  0
    0.6380   16.1720   19.7450 C   0  0  0  0  0  0  0  0  0  0  0  0
   -0.1780   16.3480   18.6300 C   0  0  0  0  0  0  0  0  0  0  0  0
   -1.4870   15.9690   18.6850 O   0  0  0  0  0  0  0  0  0  0  0  0
    1.6560   17.2730   17.3690 C   0  0  0  0  0  0  0  0  0  0  0  0
    0.3140   16.9020   17.4520 C   0  0  0  0  0  0  0  0  0  0  0  0
    2.1990   17.7880   16.0390 C   0  0  1  0  0  0  0  0  0  0  0  0
    2.8840   19.0960   16.0020 N   0  0  0  0  0  0  0  0  0  0  0  0
    3.2120   19.8810   17.2280 C   0  0  0  0  0  0  0  0  0  0  0  0
    3.1110   19.7200   14.7790 C   0  0  0  0  0  0  0  0  0  0  0  0
    3.3430   20.9290   14.7210 O   0  0  0  0  0  0  0  0  0  0  0  0
    3.0340   16.7830   15.4820 O   0  0  0  0  0  0  0  0  0  0  0  0
    3.0770   16.6020   14.1290 C   0  0  0  0  0  0  0  0  0  0  0  0
    3.0930   15.2900   13.6680 C   0  0  0  0  0  0  0  0  0  0  0  0
    3.1490   17.6690   13.2210 C   0  0  0  0  0  0  0  0  0  0  0  0
    4.6950   19.9580   17.5680 C   0  0  0  0  0  0  0  0  0  0  0  0
    3.0810   19.0460   13.5680 N   0  0  0  0  0  0  0  0  0  0  0  0
    3.2680   15.0310   12.3120 C   0  0  0  0  0  0  0  0  0  0  0  0
    3.4140   16.0820   11.4080 C   0  0  0  0  0  0  0  0  0  0  0  0
    5.1180   20.0810   19.0220 C   0  0  0  0  0  0  0  0  0  0  0  0
    3.3280   17.3990   11.8610 C   0  0  0  0  0  0  0  0  0  0  0  0
    3.7030   15.7820    9.9480 C   0  0  0  0  0  0  0  0  0  0  0  0
    5.5170   19.9480   16.6960 O   0  0  0  0  0  0  0  0  0  0  0  0
    6.6230   20.3200   19.2860 C   0  0  0  0  0  0  0  0  0  0  0  0
    5.1270   15.3240    9.6930 C   0  0  0  0  0  0  0  0  0  0  0  0
    7.1160   21.7020   18.8560 C   0  0  0  0  0  0  0  0  0  0  0  0
    5.2930   14.2370    9.0970 O   0  5  0  0  0  0  0  0  0  0  0  0
    6.5970   22.6860   19.4290 O   0  0  0  0  0  0  0  0  0  0  0  0
    6.0570   16.0690   10.0720 O   0  0  0  0  0  0  0  0  0  0  0  0
    8.0100   21.7560   17.9850 O   0  5  0  0  0  0  0  0  0  0  0  0
    2.6120   16.4120   20.5010 H   0  0  0  0  0  0  0  0  0  0  0  0
    3.5010   17.3450   18.4320 H   0  0  0  0  0  0  0  0  0  0  0  0
    0.2480   15.7600   20.6380 H   0  0  0  0  0  0  0  0  0  0  0  0
   -1.7110   15.6010   19.5610 H   0  0  0  0  0  0  0  0  0  0  0  0
   -0.3300   17.0220   16.6180 H   0  0  0  0  0  0  0  0  0  0  0  0
    1.3470   17.8710   15.3750 H   0  0  0  0  0  0  0  0  0  0  0  0
    2.8370   20.8910   17.1240 H   0  0  0  0  0  0  0  0  0  0  0  0
    2.6570   19.5280   18.0810 H   0  0  0  0  0  0  0  0  0  0  0  0
    2.9840   14.4890   14.3470 H   0  0  0  0  0  0  0  0  0  0  0  0
    3.1380   19.6840   12.7610 H   0  0  0  0  0  0  0  0  0  0  0  0
    3.3100   14.0290   11.9700 H   0  0  0  0  0  0  0  0  0  0  0  0
    4.5530   20.8790   19.4820 H   0  0  0  0  0  0  0  0  0  0  0  0
    4.8070   19.1870   19.5420 H   0  0  0  0  0  0  0  0  0  0  0  0
    3.4210   18.1990   11.1730 H   0  0  0  0  0  0  0  0  0  0  0  0
    3.0110   15.0300    9.5950 H   0  0  0  0  0  0  0  0  0  0  0  0
    3.5050   16.6550    9.3420 H   0  0  0  0  0  0  0  0  0  0  0  0
    6.8060   20.2230   20.3550 H   0  0  0  0  0  0  0  0  0  0  0  0
    7.2060   19.5520   18.7770 H   0  0  0  0  0  0  0  0  0  0  0  0
  1  2  2  0  0  0  0
  1  3  1  0  0  0  0
  1 32  1  0  0  0  0
  2  6  1  0  0  0  0
  2 33  1  0  0  0  0
  3  4  2  0  0  0  0
  3 34  1  0  0  0  0
  4  5  1  0  0  0  0
  4  7  1  0  0  0  0
  5 35  1  0  0  0  0
  6  7  2  0  0  0  0
  6  8  1  0  0  0  0
  7 36  1  0  0  0  0
  8  9  1  0  0  0  0
  8 13  1  0  0  0  0
  8 37  1  0  0  0  0
  9 10  1  0  0  0  0
  9 11  1  0  0  0  0
 10 17  1  0  0  0  0
 10 38  1  0  0  0  0
 10 39  1  0  0  0  0
 11 12  2  0  0  0  0
 11 18  1  0  0  0  0
 13 14  1  0  0  0  0
 14 15  2  0  0  0  0
 14 16  1  0  0  0  0
 15 19  1  0  0  0  0
 15 40  1  0  0  0  0
 16 18  1  0  0  0  0
 16 22  2  0  0  0  0
 17 21  1  0  0  0  0
 17 24  2  0  0  0  0
 18 41  1  0  0  0  0
 19 20  2  0  0  0  0
 19 42  1  0  0  0  0
 20 22  1  0  0  0  0
 20 23  1  0  0  0  0
 21 25  1  0  0  0  0
 21 43  1  0  0  0  0
 21 44  1  0  0  0  0
 22 45  1  0  0  0  0
 23 26  1  0  0  0  0
 23 46  1  0  0  0  0
 23 47  1  0  0  0  0
 25 27  1  0  0  0  0
 25 48  1  0  0  0  0
 25 49  1  0  0  0  0
 26 28  1  0  0  0  0
 26 30  2  0  0  0  0
 27 29  2  0  0  0  0
 27 31  1  0  0  0  0
M  CHG  1  28  -1
M  CHG  1  31  -1
M  END
> <rseq>
1

> <mseq>
294

> <S>
-6.413246

> <rmsd_refine>
1.399725

> <E_conf>
-279.8146

> <E_score1>
-12.60773

> <E_refine>
-37.87592

> <E_score2>
-6.413246

>  <$File>
outputs/pdb_4j58_cleaned.pdb_2024_06_17__22_47_40_V2_BS398_MIN1_/SDF/sdf_db.sdf

> <Rec_index>
1

>  <PLIF_raw>
[[30,29,30,30],[823,1872,823,829],[54,125,54,54],[2,7,7,7],[6.5,4.043329633,5.006618018,0.7217394189]]

> <FP:PLIF>
6 19 1 16 13 31

>  <PLIF_ligidx>
[30,30,[30,30],30,29,29]

$$$$
294
  MOE2022           3D

 58 60  0  0  1  0  0  0  0  0999 V2000
    6.1560   14.4690   10.0780 C   0  0  0  0  0  0  0  0  0  0  0  0
    5.8180   15.7320    9.6020 C   0  0  0  0  0  0  0  0  0  0  0  0
    4.5690   16.2730    9.8860 C   0  0  0  0  0  0  0  0  0  0  0  0
    3.6380   15.5510   10.6450 C   0  0  0  0  0  0  0  0  0  0  0  0
    3.9850   14.2730   11.1030 C   0  0  0  0  0  0  0  0  0  0  0  0
    5.2380   13.7390   10.8240 C   0  0  0  0  0  0  0  0  0  0  0  0
    2.3130   16.1140   10.9080 C   0  0  0  0  0  0  0  0  0  0  0  0
    1.7940   16.1390   12.1970 N   0  0  0  0  0  0  0  0  0  0  0  0
    1.6300   16.5710    9.9950 O   0  0  0  0  0  0  0  0  0  0  0  0
    2.6440   16.1220   13.4050 C   0  0  0  0  0  0  0  0  0  0  0  0
    0.3960   16.5560   12.4490 C   0  0  0  0  0  0  0  0  0  0  0  0
    1.9840   15.3910   14.5840 C   0  0  0  0  0  0  0  0  0  0  0  0
   -0.2430   15.8260   13.6440 C   0  0  0  0  0  0  0  0  0  0  0  0
    0.6140   15.8660   14.8390 N   0  0  0  0  0  0  0  0  0  0  0  0
    0.1340   16.2540   16.0840 C   0  0  0  0  0  0  0  0  0  0  0  0
   -1.0810   16.2650   16.2640 O   0  0  0  0  0  0  0  0  0  0  0  0
    1.0620   16.6570   17.1400 C   0  0  0  0  0  0  0  0  0  0  0  0
    2.0740   17.5850   16.8780 C   0  0  0  0  0  0  0  0  0  0  0  0
    0.9330   16.1390   18.4340 C   0  0  0  0  0  0  0  0  0  0  0  0
    1.8210   16.5110   19.4390 C   0  0  0  0  0  0  0  0  0  0  0  0
    2.9780   17.9680   17.8720 C   0  0  0  0  0  0  0  0  0  0  0  0
    2.8420   17.4130   19.1540 C   0  0  0  0  0  0  0  0  0  0  0  0
    1.6720   15.9460   20.8340 C   0  0  0  0  0  0  0  0  0  0  0  0
    4.0500   18.9150   17.5520 C   0  0  0  0  0  0  0  0  0  0  0  0
    4.3710   19.1930   16.3990 O   0  0  0  0  0  0  0  0  0  0  0  0
    4.7360   19.5040   18.5850 N   0  0  0  0  0  0  0  0  0  0  0  0
    5.8270   20.4660   18.4120 C   0  0  2  0  0  0  0  0  0  0  0  0
    6.7880   20.3970   19.6070 C   0  0  0  0  0  0  0  0  0  0  0  0
    5.2750   21.8860   18.1340 C   0  0  0  0  0  0  0  0  0  0  0  0
    4.4200   22.3540   19.1880 O   0  0  0  0  0  0  0  0  0  0  0  0
    6.3200   22.8490   17.9470 O   0  0  0  0  0  0  0  0  0  0  0  0
    7.1090   14.0590    9.8690 H   0  0  0  0  0  0  0  0  0  0  0  0
    6.5100   16.2770    9.0160 H   0  0  0  0  0  0  0  0  0  0  0  0
    4.3180   17.2350    9.5180 H   0  0  0  0  0  0  0  0  0  0  0  0
    3.2870   13.7050   11.6640 H   0  0  0  0  0  0  0  0  0  0  0  0
    5.4950   12.7740   11.1740 H   0  0  0  0  0  0  0  0  0  0  0  0
    3.6050   15.6730   13.2160 H   0  0  0  0  0  0  0  0  0  0  0  0
    2.8560   17.1410   13.6980 H   0  0  0  0  0  0  0  0  0  0  0  0
    0.3730   17.6210   12.6320 H   0  0  0  0  0  0  0  0  0  0  0  0
   -0.2220   16.3920   11.5770 H   0  0  0  0  0  0  0  0  0  0  0  0
    1.9450   14.3360   14.3500 H   0  0  0  0  0  0  0  0  0  0  0  0
    2.6140   15.4620   15.4580 H   0  0  0  0  0  0  0  0  0  0  0  0
   -1.2170   16.2540   13.8370 H   0  0  0  0  0  0  0  0  0  0  0  0
   -0.4220   14.7960   13.3700 H   0  0  0  0  0  0  0  0  0  0  0  0
    2.1540   18.0040   15.9070 H   0  0  0  0  0  0  0  0  0  0  0  0
    0.1540   15.4520   18.6440 H   0  0  0  0  0  0  0  0  0  0  0  0
    3.5200   17.6770   19.9220 H   0  0  0  0  0  0  0  0  0  0  0  0
    0.8830   16.4720   21.3720 H   0  0  0  0  0  0  0  0  0  0  0  0
    1.4140   14.8890   20.7910 H   0  0  0  0  0  0  0  0  0  0  0  0
    2.5990   16.0410   21.4010 H   0  0  0  0  0  0  0  0  0  0  0  0
    4.3860   19.3580   19.5430 H   0  0  0  0  0  0  0  0  0  0  0  0
    6.3950   20.1770   17.5260 H   0  0  0  0  0  0  0  0  0  0  0  0
    7.6200   21.0880   19.4630 H   0  0  0  0  0  0  0  0  0  0  0  0
    6.2650   20.6500   20.5270 H   0  0  0  0  0  0  0  0  0  0  0  0
    7.1920   19.3880   19.6910 H   0  0  0  0  0  0  0  0  0  0  0  0
    4.6880   21.8650   17.2260 H   0  0  0  0  0  0  0  0  0  0  0  0
    3.6560   21.7590   19.2740 H   0  0  0  0  0  0  0  0  0  0  0  0
    5.9330   23.7030   17.6980 H   0  0  0  0  0  0  0  0  0  0  0  0
  1  2  2  0  0  0  0
  1  6  1  0  0  0  0
  1 32  1  0  0  0  0
  2  3  1  0  0  0  0
  2 33  1  0  0  0  0
  3  4  2  0  0  0  0
  3 34  1  0  0  0  0
  4  5  1  0  0  0  0
  4  7  1  0  0  0  0
  5  6  2  0  0  0  0
  5 35  1  0  0  0  0
  6 36  1  0  0  0  0
  7  8  1  0  0  0  0
  7  9  2  0  0  0  0
  8 10  1  0  0  0  0
  8 11  1  0  0  0  0
 10 12  1  0  0  0  0
 10 37  1  0  0  0  0
 10 38  1  0  0  0  0
 11 13  1  0  0  0  0
 11 39  1  0  0  0  0
 11 40  1  0  0  0  0
 12 14  1  0  0  0  0
 12 41  1  0  0  0  0
 12 42  1  0  0  0  0
 13 14  1  0  0  0  0
 13 43  1  0  0  0  0
 13 44  1  0  0  0  0
 14 15  1  0  0  0  0
 15 16  2  0  0  0  0
 15 17  1  0  0  0  0
 17 18  1  0  0  0  0
 17 19  2  0  0  0  0
 18 21  2  0  0  0  0
 18 45  1  0  0  0  0
 19 20  1  0  0  0  0
 19 46  1  0  0  0  0
 20 22  2  0  0  0  0
 20 23  1  0  0  0  0
 21 22  1  0  0  0  0
 21 24  1  0  0  0  0
 22 47  1  0  0  0  0
 23 48  1  0  0  0  0
 23 49  1  0  0  0  0
 23 50  1  0  0  0  0
 24 25  2  0  0  0  0
 24 26  1  0  0  0  0
 26 27  1  0  0  0  0
 26 51  1  0  0  0  0
 27 28  1  0  0  0  0
 27 29  1  0  0  0  0
 27 52  1  0  0  0  0
 28 53  1  0  0  0  0
 28 54  1  0  0  0  0
 28 55  1  0  0  0  0
 29 30  1  0  0  0  0
 29 31  1  0  0  0  0
 29 56  1  0  0  0  0
 30 57  1  0  0  0  0
 31 58  1  0  0  0  0
M  END
> <rseq>
1

> <mseq>
295

> <S>
-6.946263

> <rmsd_refine>
1.071538

> <E_conf>
17.92985

> <E_score1>
-10.33995

> <E_refine>
-38.28454

> <E_score2>
-6.946263

>  <$File>
outputs/pdb_4j58_cleaned.pdb_2024_06_17__22_47_40_V2_BS398_MIN1_/SDF/sdf_db.sdf

> <Rec_index>
1

>  <PLIF_raw>
[[26,30,1,6,5,4,3,2],[1504,1504,820,820,820,820,820,820],[101,101,54,54,54,54,54,54],[3,3,10,10,10,10,10,10],[0.6,0.5,0.6,0.6,0.6,0.6,0.6,0.6]]

> <FP:PLIF>
2 8

>  <PLIF_ligidx>
[[1,6,5,4,3,2],[26,30]]

$$$$
295
  MOE2022           3D

 49 52  0  0  0  0  0  0  0  0999 V2000
    6.8670   20.7910   18.3500 C   0  0  0  0  0  0  0  0  0  0  0  0
    5.8980   19.7960   18.2800 C   0  0  0  0  0  0  0  0  0  0  0  0
    4.8480   19.8600   17.3490 C   0  0  0  0  0  0  0  0  0  0  0  0
    3.8630   18.7660   17.2750 C   0  0  0  0  0  0  0  0  0  0  0  0
    3.3780   18.2900   16.0470 C   0  0  0  0  0  0  0  0  0  0  0  0
    3.3910   18.1640   18.4480 C   0  0  0  0  0  0  0  0  0  0  0  0
    2.4380   17.1370   18.4270 C   0  0  0  0  0  0  0  0  0  0  0  0
    2.4060   17.2940   15.9990 C   0  0  0  0  0  0  0  0  0  0  0  0
    1.9730   16.5120   19.6630 C   0  0  0  0  0  0  0  0  0  0  0  0
    1.9430   16.7270   17.1820 C   0  0  0  0  0  0  0  0  0  0  0  0
    1.8070   16.8620   14.6750 C   0  0  0  0  0  0  0  0  0  0  0  0
    0.7820   15.9740   19.8130 N   0  0  0  0  0  0  0  0  0  0  0  0
    2.6980   16.4200   20.7550 N   0  0  0  0  0  0  0  0  0  0  0  0
    1.9310   15.7970   21.6250 N   0  5  0  0  0  0  0  0  0  0  0  0
    2.7610   16.2720   13.7280 N   0  0  0  0  0  0  0  0  0  0  0  0
    4.7870   21.0010   16.5210 C   0  0  0  0  0  0  0  0  0  0  0  0
    2.9280   16.7180   12.4340 C   0  0  0  0  0  0  0  0  0  0  0  0
    0.7640   15.5300   21.0520 N   0  0  0  0  0  0  0  0  0  0  0  0
    3.6780   15.8790   11.4930 C   0  0  0  0  0  0  0  0  0  0  0  0
    3.7250   21.1350   15.6480 O   0  0  0  0  0  0  0  0  0  0  0  0
    2.4530   17.8100   12.1270 O   0  0  0  0  0  0  0  0  0  0  0  0
    4.4340   16.4310   10.4410 C   0  0  0  0  0  0  0  0  0  0  0  0
    4.4520   17.7840   10.2270 O   0  0  0  0  0  0  0  0  0  0  0  0
    5.1940   15.6110    9.6010 C   0  0  0  0  0  0  0  0  0  0  0  0
    5.9520   16.1540    8.5990 O   0  0  0  0  0  0  0  0  0  0  0  0
    5.1940   14.2330    9.7660 C   0  0  0  0  0  0  0  0  0  0  0  0
    6.8040   21.8890   17.4990 C   0  0  0  0  0  0  0  0  0  0  0  0
    4.4220   13.6700   10.7790 C   0  0  0  0  0  0  0  0  0  0  0  0
    3.6740   14.4790   11.6300 C   0  0  0  0  0  0  0  0  0  0  0  0
    3.4810   22.2540   14.7670 C   0  0  0  0  0  0  0  0  0  0  0  0
    5.7640   22.0000   16.5860 C   0  0  0  0  0  0  0  0  0  0  0  0
    7.6560   20.7120   19.0520 H   0  0  0  0  0  0  0  0  0  0  0  0
    5.9670   18.9740   18.9410 H   0  0  0  0  0  0  0  0  0  0  0  0
    3.7400   18.7010   15.1410 H   0  0  0  0  0  0  0  0  0  0  0  0
    3.7660   18.4890   19.3830 H   0  0  0  0  0  0  0  0  0  0  0  0
    1.1980   15.9750   17.1450 H   0  0  0  0  0  0  0  0  0  0  0  0
    1.0170   16.1450   14.8520 H   0  0  0  0  0  0  0  0  0  0  0  0
    1.3030   17.7120   14.2370 H   0  0  0  0  0  0  0  0  0  0  0  0
    3.1740   15.3660   13.9940 H   0  0  0  0  0  0  0  0  0  0  0  0
    3.7850   18.2220   10.7990 H   0  0  0  0  0  0  0  0  0  0  0  0
    5.8590   17.1290    8.6080 H   0  0  0  0  0  0  0  0  0  0  0  0
    5.7700   13.6150    9.1260 H   0  0  0  0  0  0  0  0  0  0  0  0
    7.5480   22.6430   17.5530 H   0  0  0  0  0  0  0  0  0  0  0  0
    4.4070   12.6180   10.9010 H   0  0  0  0  0  0  0  0  0  0  0  0
    3.0930   14.0230   12.3900 H   0  0  0  0  0  0  0  0  0  0  0  0
    2.5580   22.0910   14.2100 H   0  0  0  0  0  0  0  0  0  0  0  0
    3.3790   23.1740   15.3430 H   0  0  0  0  0  0  0  0  0  0  0  0
    4.3000   22.3640   14.0560 H   0  0  0  0  0  0  0  0  0  0  0  0
    5.7190   22.8470   15.9520 H   0  0  0  0  0  0  0  0  0  0  0  0
  1  2  1  0  0  0  0
  1 27  2  0  0  0  0
  1 32  1  0  0  0  0
  2  3  2  0  0  0  0
  2 33  1  0  0  0  0
  3  4  1  0  0  0  0
  3 16  1  0  0  0  0
  4  5  1  0  0  0  0
  4  6  2  0  0  0  0
  5  8  2  0  0  0  0
  5 34  1  0  0  0  0
  6  7  1  0  0  0  0
  6 35  1  0  0  0  0
  7  9  1  0  0  0  0
  7 10  2  0  0  0  0
  8 10  1  0  0  0  0
  8 11  1  0  0  0  0
  9 12  1  0  0  0  0
  9 13  2  0  0  0  0
 10 36  1  0  0  0  0
 11 15  1  0  0  0  0
 11 37  1  0  0  0  0
 11 38  1  0  0  0  0
 12 18  2  0  0  0  0
 13 14  1  0  0  0  0
 14 18  1  0  0  0  0
 15 17  1  0  0  0  0
 15 39  1  0  0  0  0
 16 20  1  0  0  0  0
 16 31  2  0  0  0  0
 17 19  1  0  0  0  0
 17 21  2  0  0  0  0
 19 22  1  0  0  0  0
 19 29  2  0  0  0  0
 20 30  1  0  0  0  0
 22 23  1  0  0  0  0
 22 24  2  0  0  0  0
 23 40  1  0  0  0  0
 24 25  1  0  0  0  0
 24 26  1  0  0  0  0
 25 41  1  0  0  0  0
 26 28  2  0  0  0  0
 26 42  1  0  0  0  0
 27 31  1  0  0  0  0
 27 43  1  0  0  0  0
 28 29  1  0  0  0  0
 28 44  1  0  0  0  0
 29 45  1  0  0  0  0
 30 46  1  0  0  0  0
 30 47  1  0  0  0  0
 30 48  1  0  0  0  0
 31 49  1  0  0  0  0
M  CHG  1  14  -1
M  END
> <rseq>
1

> <mseq>
296

> <S>
-6.429159

> <rmsd_refine>
1.622629

> <E_conf>
-55.92727

> <E_score1>
-12.45963

> <E_refine>
-39.51605

> <E_score2>
-6.429159

>  <$File>
outputs/pdb_4j58_cleaned.pdb_2024_06_17__22_47_40_V2_BS398_MIN1_/SDF/sdf_db.sdf

> <Rec_index>
1

>  <PLIF_raw>
[[25,18,14,14,18,18,4,6,7,10,8,5],[2222,1206,1206,1212,1206,1212,954,954,954,954,954,954],[148,81,81,81,81,81,62,62,62,62,62,62],[3,2,7,7,7,7,10,10,10,10,10,10],[0.5,5.5,1.596905627,1.034282582,3.326828735,3.532674374,0.5,0.5,0.5,0.5,0.5,0.5]]

> <FP:PLIF>
21 17 18 24 25 39

>  <PLIF_ligidx>
[[4,6,7,10,8,5],18,18,[14,14,18,18],18,25]

$$$$
296
  MOE2022           3D

 60 63  0  0  0  0  0  0  0  0999 V2000
    6.1590   14.4630   10.0820 C   0  0  0  0  0  0  0  0  0  0  0  0
    5.8200   15.7260    9.6090 C   0  0  0  0  0  0  0  0  0  0  0  0
    4.5680   16.2630    9.8880 C   0  0  0  0  0  0  0  0  0  0  0  0
    3.6340   15.5370   10.6390 C   0  0  0  0  0  0  0  0  0  0  0  0
    3.9820   14.2580   11.0950 C   0  0  0  0  0  0  0  0  0  0  0  0
    5.2380   13.7290   10.8210 C   0  0  0  0  0  0  0  0  0  0  0  0
    2.3070   16.0950   10.8960 C   0  0  0  0  0  0  0  0  0  0  0  0
    1.7780   16.1150   12.1820 N   0  0  0  0  0  0  0  0  0  0  0  0
    1.6280   16.5540    9.9800 O   0  0  0  0  0  0  0  0  0  0  0  0
    2.6210   16.0950   13.3950 C   0  0  0  0  0  0  0  0  0  0  0  0
    0.3800   16.5350   12.4250 C   0  0  0  0  0  0  0  0  0  0  0  0
    1.9510   15.3640   14.5690 C   0  0  0  0  0  0  0  0  0  0  0  0
   -0.2690   15.8040   13.6150 C   0  0  0  0  0  0  0  0  0  0  0  0
    0.5790   15.8400   14.8160 N   0  0  0  0  0  0  0  0  0  0  0  0
    0.0910   16.2250   16.0580 C   0  0  0  0  0  0  0  0  0  0  0  0
   -1.1250   16.2270   16.2320 O   0  0  0  0  0  0  0  0  0  0  0  0
    1.0110   16.6360   17.1190 C   0  0  0  0  0  0  0  0  0  0  0  0
    2.0290   17.5570   16.8540 C   0  0  0  0  0  0  0  0  0  0  0  0
    0.8720   16.1310   18.4170 C   0  0  0  0  0  0  0  0  0  0  0  0
    1.7570   16.5070   19.4230 C   0  0  0  0  0  0  0  0  0  0  0  0
    2.9320   17.9400   17.8490 C   0  0  0  0  0  0  0  0  0  0  0  0
    2.7850   17.4010   19.1360 C   0  0  0  0  0  0  0  0  0  0  0  0
    1.5990   15.9540   20.8230 C   0  0  0  0  0  0  0  0  0  0  0  0
    4.0210   18.8620   17.5200 C   0  0  0  0  0  0  0  0  0  0  0  0
    4.3880   19.0690   16.3650 O   0  0  0  0  0  0  0  0  0  0  0  0
    4.6780   19.4960   18.5460 N   0  0  0  0  0  0  0  0  0  0  0  0
    5.8420   20.3550   18.3600 C   0  0  0  0  0  0  0  0  0  0  0  0
    6.7810   20.3550   19.5660 C   0  0  0  0  0  0  0  0  0  0  0  0
    5.4770   21.8270   18.2140 C   0  0  0  0  0  0  0  0  0  0  0  0
    7.5600   21.6710   19.4620 C   0  0  0  0  0  0  0  0  0  0  0  0
    6.8140   22.5310   18.4360 C   0  0  0  0  0  0  0  0  0  0  0  0
    7.1140   14.0570    9.8770 H   0  0  0  0  0  0  0  0  0  0  0  0
    6.5140   16.2750    9.0290 H   0  0  0  0  0  0  0  0  0  0  0  0
    4.3160   17.2250    9.5220 H   0  0  0  0  0  0  0  0  0  0  0  0
    3.2830   13.6870   11.6500 H   0  0  0  0  0  0  0  0  0  0  0  0
    5.4970   12.7620   11.1700 H   0  0  0  0  0  0  0  0  0  0  0  0
    3.5830   15.6440   13.2120 H   0  0  0  0  0  0  0  0  0  0  0  0
    2.8330   17.1140   13.6900 H   0  0  0  0  0  0  0  0  0  0  0  0
    0.3590   17.6000   12.6110 H   0  0  0  0  0  0  0  0  0  0  0  0
   -0.2330   16.3750   11.5490 H   0  0  0  0  0  0  0  0  0  0  0  0
    1.9120   14.3090   14.3350 H   0  0  0  0  0  0  0  0  0  0  0  0
    2.5760   15.4350   15.4470 H   0  0  0  0  0  0  0  0  0  0  0  0
   -1.2430   16.2350   13.8020 H   0  0  0  0  0  0  0  0  0  0  0  0
   -0.4490   14.7750   13.3370 H   0  0  0  0  0  0  0  0  0  0  0  0
    2.1160   17.9680   15.8820 H   0  0  0  0  0  0  0  0  0  0  0  0
    0.0890   15.4500   18.6300 H   0  0  0  0  0  0  0  0  0  0  0  0
    3.4630   17.6680   19.9030 H   0  0  0  0  0  0  0  0  0  0  0  0
    0.7950   16.4730   21.3450 H   0  0  0  0  0  0  0  0  0  0  0  0
    1.3600   14.8930   20.7860 H   0  0  0  0  0  0  0  0  0  0  0  0
    2.5170   16.0710   21.4000 H   0  0  0  0  0  0  0  0  0  0  0  0
    4.2760   19.4340   19.4920 H   0  0  0  0  0  0  0  0  0  0  0  0
    6.4020   20.0330   17.4800 H   0  0  0  0  0  0  0  0  0  0  0  0
    6.1970   20.3550   20.4860 H   0  0  0  0  0  0  0  0  0  0  0  0
    7.4490   19.4930   19.5440 H   0  0  0  0  0  0  0  0  0  0  0  0
    5.0690   22.0420   17.2250 H   0  0  0  0  0  0  0  0  0  0  0  0
    4.7680   22.1180   18.9910 H   0  0  0  0  0  0  0  0  0  0  0  0
    7.5800   22.1700   20.4310 H   0  0  0  0  0  0  0  0  0  0  0  0
    8.5800   21.4860   19.1210 H   0  0  0  0  0  0  0  0  0  0  0  0
    7.3760   22.5470   17.5010 H   0  0  0  0  0  0  0  0  0  0  0  0
    6.6650   23.5470   18.7990 H   0  0  0  0  0  0  0  0  0  0  0  0
  1  2  2  0  0  0  0
  1  6  1  0  0  0  0
  1 32  1  0  0  0  0
  2  3  1  0  0  0  0
  2 33  1  0  0  0  0
  3  4  2  0  0  0  0
  3 34  1  0  0  0  0
  4  5  1  0  0  0  0
  4  7  1  0  0  0  0
  5  6  2  0  0  0  0
  5 35  1  0  0  0  0
  6 36  1  0  0  0  0
  7  8  1  0  0  0  0
  7  9  2  0  0  0  0
  8 10  1  0  0  0  0
  8 11  1  0  0  0  0
 10 12  1  0  0  0  0
 10 37  1  0  0  0  0
 10 38  1  0  0  0  0
 11 13  1  0  0  0  0
 11 39  1  0  0  0  0
 11 40  1  0  0  0  0
 12 14  1  0  0  0  0
 12 41  1  0  0  0  0
 12 42  1  0  0  0  0
 13 14  1  0  0  0  0
 13 43  1  0  0  0  0
 13 44  1  0  0  0  0
 14 15  1  0  0  0  0
 15 16  2  0  0  0  0
 15 17  1  0  0  0  0
 17 18  1  0  0  0  0
 17 19  2  0  0  0  0
 18 21  2  0  0  0  0
 18 45  1  0  0  0  0
 19 20  1  0  0  0  0
 19 46  1  0  0  0  0
 20 22  2  0  0  0  0
 20 23  1  0  0  0  0
 21 22  1  0  0  0  0
 21 24  1  0  0  0  0
 22 47  1  0  0  0  0
 23 48  1  0  0  0  0
 23 49  1  0  0  0  0
 23 50  1  0  0  0  0
 24 25  2  0  0  0  0
 24 26  1  0  0  0  0
 26 27  1  0  0  0  0
 26 51  1  0  0  0  0
 27 28  1  0  0  0  0
 27 29  1  0  0  0  0
 27 52  1  0  0  0  0
 28 30  1  0  0  0  0
 28 53  1  0  0  0  0
 28 54  1  0  0  0  0
 29 31  1  0  0  0  0
 29 55  1  0  0  0  0
 29 56  1  0  0  0  0
 30 31  1  0  0  0  0
 30 57  1  0  0  0  0
 30 58  1  0  0  0  0
 31 59  1  0  0  0  0
 31 60  1  0  0  0  0
M  END
> <rseq>
1

> <mseq>
297

> <S>
-7.33964

> <rmsd_refine>
1.033053

> <E_conf>
29.19445

> <E_score1>
-10.64559

> <E_refine>
-39.0145

> <E_score2>
-7.33964

>  <$File>
outputs/pdb_4j58_cleaned.pdb_2024_06_17__22_47_40_V2_BS398_MIN1_/SDF/sdf_db.sdf

> <Rec_index>
1

>  <PLIF_raw>
[[26,1,6,5,4,3,2],[1504,820,820,820,820,820,820],[101,54,54,54,54,54,54],[3,10,10,10,10,10,10],[1,0.6,0.6,0.6,0.6,0.6,0.6]]

> <FP:PLIF>
2 8

>  <PLIF_ligidx>
[[1,6,5,4,3,2],26]

$$$$
297
  MOE2022           3D

 52 55  0  0  1  0  0  0  0  0999 V2000
    3.5450   17.6670   19.6720 O   0  0  0  0  0  0  0  0  0  0  0  0
    2.6090   17.3000   18.9520 C   0  0  0  0  0  0  0  0  0  0  0  0
    1.5160   16.4850   19.4050 C   0  0  0  0  0  0  0  0  0  0  0  0
    2.6070   17.6820   17.6060 N   0  0  0  0  0  0  0  0  0  0  0  0
    0.5490   16.1170   18.5190 C   0  0  0  0  0  0  0  0  0  0  0  0
    1.6110   17.2040   16.7370 C   0  0  0  0  0  0  0  0  0  0  0  0
    0.6290   16.4830   17.1950 N   0  0  0  0  0  0  0  0  0  0  0  0
    1.7310   17.5050   15.3210 C   0  0  0  0  0  0  0  0  0  0  0  0
    3.6730   18.6080   17.1230 C   0  0  0  0  0  0  0  0  0  0  0  0
    1.4710   16.0560   20.8640 C   0  0  0  0  0  0  0  0  0  0  0  0
   -0.6430   15.2620   18.9020 C   0  0  0  0  0  0  0  0  0  0  0  0
    3.4010   20.1090   17.3360 C   0  0  1  0  0  0  0  0  0  0  0  0
    4.6220   20.8150   17.8490 C   0  0  0  0  0  0  0  0  0  0  0  0
    0.9600   18.5180   14.7330 C   0  0  0  0  0  0  0  0  0  0  0  0
    3.1460   20.8790   16.0280 C   0  0  0  0  0  0  0  0  0  0  0  0
    1.1190   18.8370   13.3900 C   0  0  0  0  0  0  0  0  0  0  0  0
    2.0570   18.1460   12.6190 C   0  0  0  0  0  0  0  0  0  0  0  0
    2.1980   18.5170   11.3040 O   0  0  0  0  0  0  0  0  0  0  0  0
    2.6270   16.7880   14.5070 C   0  0  0  0  0  0  0  0  0  0  0  0
    3.3300   15.7430   15.0330 O   0  0  0  0  0  0  0  0  0  0  0  0
    4.2230   21.8710   15.8580 O   0  0  0  0  0  0  0  0  0  0  0  0
    3.4920   18.6780   10.6520 C   0  0  0  0  0  0  0  0  0  0  0  0
    2.8140   17.1110   13.1660 C   0  0  0  0  0  0  0  0  0  0  0  0
    5.0320   21.7860   16.9590 C   0  0  0  0  0  0  0  0  0  0  0  0
    6.1570   22.5710   17.1910 C   0  0  0  0  0  0  0  0  0  0  0  0
    3.9580   17.4640    9.8750 C   0  0  0  0  0  0  0  0  0  0  0  0
    6.8840   22.3560   18.3600 C   0  0  0  0  0  0  0  0  0  0  0  0
    6.4790   21.3760   19.2720 C   0  0  0  0  0  0  0  0  0  0  0  0
    5.3420   20.6040   19.0200 C   0  0  0  0  0  0  0  0  0  0  0  0
    3.4420   17.2560    8.7560 O   0  5  0  0  0  0  0  0  0  0  0  0
    4.8660   16.7670   10.3790 O   0  0  0  0  0  0  0  0  0  0  0  0
    4.5940   18.3860   17.6310 H   0  0  0  0  0  0  0  0  0  0  0  0
    3.9420   18.4200   16.0940 H   0  0  0  0  0  0  0  0  0  0  0  0
    0.7050   16.5970   21.4020 H   0  0  0  0  0  0  0  0  0  0  0  0
    1.2640   15.0010   20.9530 H   0  0  0  0  0  0  0  0  0  0  0  0
    2.4080   16.2250   21.3770 H   0  0  0  0  0  0  0  0  0  0  0  0
   -1.0830   15.5790   19.8370 H   0  0  0  0  0  0  0  0  0  0  0  0
   -1.4230   15.3080   18.1540 H   0  0  0  0  0  0  0  0  0  0  0  0
   -0.3570   14.2250   19.0030 H   0  0  0  0  0  0  0  0  0  0  0  0
    2.5810   20.2550   18.0380 H   0  0  0  0  0  0  0  0  0  0  0  0
    0.2560   19.0500   15.3200 H   0  0  0  0  0  0  0  0  0  0  0  0
    3.1450   20.2100   15.1680 H   0  0  0  0  0  0  0  0  0  0  0  0
    2.1910   21.4010   16.0860 H   0  0  0  0  0  0  0  0  0  0  0  0
    0.5380   19.6060   12.9500 H   0  0  0  0  0  0  0  0  0  0  0  0
    2.9890   15.5090   15.9200 H   0  0  0  0  0  0  0  0  0  0  0  0
    3.4000   19.5130    9.9720 H   0  0  0  0  0  0  0  0  0  0  0  0
    4.2180   18.9530   11.4020 H   0  0  0  0  0  0  0  0  0  0  0  0
    3.5020   16.5660   12.5750 H   0  0  0  0  0  0  0  0  0  0  0  0
    6.4530   23.3110   16.4930 H   0  0  0  0  0  0  0  0  0  0  0  0
    7.7480   22.9360   18.5590 H   0  0  0  0  0  0  0  0  0  0  0  0
    7.0410   21.2150   20.1560 H   0  0  0  0  0  0  0  0  0  0  0  0
    5.0380   19.8620   19.7120 H   0  0  0  0  0  0  0  0  0  0  0  0
  1  2  2  0  0  0  0
  2  3  1  0  0  0  0
  2  4  1  0  0  0  0
  3  5  2  0  0  0  0
  3 10  1  0  0  0  0
  4  6  1  0  0  0  0
  4  9  1  0  0  0  0
  5  7  1  0  0  0  0
  5 11  1  0  0  0  0
  6  7  2  0  0  0  0
  6  8  1  0  0  0  0
  8 14  1  0  0  0  0
  8 19  2  0  0  0  0
  9 12  1  0  0  0  0
  9 32  1  0  0  0  0
  9 33  1  0  0  0  0
 10 34  1  0  0  0  0
 10 35  1  0  0  0  0
 10 36  1  0  0  0  0
 11 37  1  0  0  0  0
 11 38  1  0  0  0  0
 11 39  1  0  0  0  0
 12 13  1  0  0  0  0
 12 15  1  0  0  0  0
 12 40  1  0  0  0  0
 13 24  2  0  0  0  0
 13 29  1  0  0  0  0
 14 16  2  0  0  0  0
 14 41  1  0  0  0  0
 15 21  1  0  0  0  0
 15 42  1  0  0  0  0
 15 43  1  0  0  0  0
 16 17  1  0  0  0  0
 16 44  1  0  0  0  0
 17 18  1  0  0  0  0
 17 23  2  0  0  0  0
 18 22  1  0  0  0  0
 19 20  1  0  0  0  0
 19 23  1  0  0  0  0
 20 45  1  0  0  0  0
 21 24  1  0  0  0  0
 22 26  1  0  0  0  0
 22 46  1  0  0  0  0
 22 47  1  0  0  0  0
 23 48  1  0  0  0  0
 24 25  1  0  0  0  0
 25 27  2  0  0  0  0
 25 49  1  0  0  0  0
 26 30  1  0  0  0  0
 26 31  2  0  0  0  0
 27 28  1  0  0  0  0
 27 50  1  0  0  0  0
 28 29  2  0  0  0  0
 28 51  1  0  0  0  0
 29 52  1  0  0  0  0
M  CHG  1  30  -1
M  END
> <rseq>
1

> <mseq>
298

> <S>
-6.051967

> <rmsd_refine>
0.8235106

> <E_conf>
-86.88702

> <E_score1>
-13.3493

> <E_refine>
-33.45622

> <E_score2>
-6.051967

>  <$File>
outputs/pdb_4j58_cleaned.pdb_2024_06_17__22_47_40_V2_BS398_MIN1_/SDF/sdf_db.sdf

> <Rec_index>
1

>  <PLIF_raw>
[[31,31,31,2,4,6,7,5,3],[823,823,829,954,954,954,954,954,954],[54,54,54,62,62,62,62,62,62],[2,7,7,10,10,10,10,10,10],[6.5,5.348297949,1.497980293,0.5,0.5,0.5,0.5,0.5,0.5]]

> <FP:PLIF>
6 19 1 16 21

>  <PLIF_ligidx>
[31,31,[31,31],31,[2,4,6,7,5,3]]

$$$$
298
  MOE2022           3D

 57 60  0  0  1  0  0  0  0  0999 V2000
    6.5490   20.0910   19.1980 C   0  0  0  0  0  0  0  0  0  0  0  0
    7.5830   20.9040   18.8050 C   0  0  0  0  0  0  0  0  0  0  0  0
    5.4540   19.8600   18.3380 C   0  0  0  0  0  0  0  0  0  0  0  0
    4.3830   19.0200   18.7140 C   0  0  0  0  0  0  0  0  0  0  0  0
    3.3520   18.7640   17.8390 C   0  0  0  0  0  0  0  0  0  0  0  0
    7.5570   21.5350   17.5490 C   0  0  0  0  0  0  0  0  0  0  0  0
    8.7040   22.4480   17.1830 C   0  0  0  0  0  0  0  0  0  0  0  0
    6.4860   21.3440   16.6800 C   0  0  0  0  0  0  0  0  0  0  0  0
    3.4080   19.4140   16.5600 C   0  0  0  0  0  0  0  0  0  0  0  0
    6.4250   22.0390   15.3950 C   0  0  0  0  0  0  0  0  0  0  0  0
    2.2710   17.8520   18.2420 C   0  0  0  0  0  0  0  0  0  0  0  0
    7.2420   21.7330   14.4800 O   0  0  0  0  0  0  0  0  0  0  0  0
    5.5640   22.9390   15.2150 O   0  5  0  0  0  0  0  0  0  0  0  0
    2.4990   17.0050   19.1500 O   0  5  0  0  0  0  0  0  0  0  0  0
    1.1300   17.9020   17.7040 O   0  0  0  0  0  0  0  0  0  0  0  0
    2.3990   19.2050   15.6360 N   0  0  0  0  0  0  0  0  0  0  0  0
    5.4280   20.4690   17.0620 C   0  0  0  0  0  0  0  0  0  0  0  0
    2.0630   20.1710   14.5840 C   0  0  0  0  0  0  0  0  0  0  0  0
    4.3970   20.2070   16.2020 N   0  0  0  0  0  0  0  0  0  0  0  0
    1.8550   19.5100   13.2180 C   0  0  1  0  0  0  0  0  0  0  0  0
    3.1310   18.7850   12.7500 C   0  0  0  0  0  0  0  0  0  0  0  0
    0.7630   18.4260   13.2360 C   0  0  0  0  0  0  0  0  0  0  0  0
    1.5140   17.1000   13.1540 C   0  0  0  0  0  0  0  0  0  0  0  0
    2.8030   17.3530   12.4540 N   0  3  1  0  0  0  0  0  0  0  0  0
    2.7150   17.0600   10.9880 C   0  0  0  0  0  0  0  0  0  0  0  0
    4.0380   16.8660   10.2860 C   0  0  0  0  0  0  0  0  0  0  0  0
    4.7280   15.7060   10.3130 C   0  0  0  0  0  0  0  0  0  0  0  0
    4.3720   14.4880   11.0210 C   0  0  0  0  0  0  0  0  0  0  0  0
    3.4080   14.2930   11.7510 O   0  0  0  0  0  0  0  0  0  0  0  0
    5.2990   13.5250   10.7880 N   0  0  0  0  0  0  0  0  0  0  0  0
    6.0330   15.4500    9.6010 C   0  0  0  0  0  0  0  0  0  0  0  0
    6.3370   13.9700    9.8740 C   0  0  0  0  0  0  0  0  0  0  0  0
    6.5740   19.6290   20.1490 H   0  0  0  0  0  0  0  0  0  0  0  0
    8.4040   21.0630   19.4560 H   0  0  0  0  0  0  0  0  0  0  0  0
    4.3830   18.5860   19.6780 H   0  0  0  0  0  0  0  0  0  0  0  0
    9.1700   22.1280   16.2520 H   0  0  0  0  0  0  0  0  0  0  0  0
    8.3340   23.4640   17.0610 H   0  0  0  0  0  0  0  0  0  0  0  0
    9.4690   22.4490   17.9580 H   0  0  0  0  0  0  0  0  0  0  0  0
    1.5940   18.6680   16.0040 H   0  0  0  0  0  0  0  0  0  0  0  0
    1.1440   20.6860   14.8670 H   0  0  0  0  0  0  0  0  0  0  0  0
    2.8370   20.9310   14.4740 H   0  0  0  0  0  0  0  0  0  0  0  0
    1.6070   20.2750   12.4820 H   0  0  0  0  0  0  0  0  0  0  0  0
    3.5610   19.3030   11.9030 H   0  0  0  0  0  0  0  0  0  0  0  0
    3.8800   18.8670   13.5270 H   0  0  0  0  0  0  0  0  0  0  0  0
    0.1370   18.4730   14.1280 H   0  0  0  0  0  0  0  0  0  0  0  0
    0.1410   18.5300   12.3460 H   0  0  0  0  0  0  0  0  0  0  0  0
    1.6850   16.7490   14.1630 H   0  0  0  0  0  0  0  0  0  0  0  0
    0.9040   16.3370   12.6890 H   0  0  0  0  0  0  0  0  0  0  0  0
    3.5060   16.7480   12.8560 H   0  0  0  0  0  0  0  0  0  0  0  0
    2.1270   16.1670   10.8190 H   0  0  0  0  0  0  0  0  0  0  0  0
    2.1560   17.8260   10.4680 H   0  0  0  0  0  0  0  0  0  0  0  0
    4.4000   17.7050    9.7500 H   0  0  0  0  0  0  0  0  0  0  0  0
    5.2610   12.5970   11.2400 H   0  0  0  0  0  0  0  0  0  0  0  0
    5.9560   15.6480    8.5400 H   0  0  0  0  0  0  0  0  0  0  0  0
    6.8100   16.0770   10.0090 H   0  0  0  0  0  0  0  0  0  0  0  0
    7.3240   13.8490   10.3200 H   0  0  0  0  0  0  0  0  0  0  0  0
    6.2840   13.3950    8.9490 H   0  0  0  0  0  0  0  0  0  0  0  0
  1  2  1  0  0  0  0
  1  3  2  0  0  0  0
  1 33  1  0  0  0  0
  2  6  2  0  0  0  0
  2 34  1  0  0  0  0
  3  4  1  0  0  0  0
  3 17  1  0  0  0  0
  4  5  2  0  0  0  0
  4 35  1  0  0  0  0
  5  9  1  0  0  0  0
  5 11  1  0  0  0  0
  6  7  1  0  0  0  0
  6  8  1  0  0  0  0
  7 36  1  0  0  0  0
  7 37  1  0  0  0  0
  7 38  1  0  0  0  0
  8 10  1  0  0  0  0
  8 17  2  0  0  0  0
  9 16  1  0  0  0  0
  9 19  2  0  0  0  0
 10 12  2  0  0  0  0
 10 13  1  0  0  0  0
 11 14  1  0  0  0  0
 11 15  2  0  0  0  0
 16 18  1  0  0  0  0
 16 39  1  0  0  0  0
 17 19  1  0  0  0  0
 18 20  1  0  0  0  0
 18 40  1  0  0  0  0
 18 41  1  0  0  0  0
 20 21  1  0  0  0  0
 20 22  1  0  0  0  0
 20 42  1  0  0  0  0
 21 24  1  0  0  0  0
 21 43  1  0  0  0  0
 21 44  1  0  0  0  0
 22 23  1  0  0  0  0
 22 45  1  0  0  0  0
 22 46  1  0  0  0  0
 23 24  1  0  0  0  0
 23 47  1  0  0  0  0
 23 48  1  0  0  0  0
 24 25  1  0  0  0  0
 24 49  1  0  0  0  0
 25 26  1  0  0  0  0
 25 50  1  0  0  0  0
 25 51  1  0  0  0  0
 26 27  2  0  0  0  0
 26 52  1  0  0  0  0
 27 28  1  0  0  0  0
 27 31  1  0  0  0  0
 28 29  2  0  0  0  0
 28 30  1  0  0  0  0
 30 32  1  0  0  0  0
 30 53  1  0  0  0  0
 31 32  1  0  0  0  0
 31 54  1  0  0  0  0
 31 55  1  0  0  0  0
 32 56  1  0  0  0  0
 32 57  1  0  0  0  0
M  CHG  1  13  -1
M  CHG  1  14  -1
M  CHG  1  24   1
M  END
> <rseq>
1

> <mseq>
299

> <S>
-6.668845

> <rmsd_refine>
1.021581

> <E_conf>
-241.5961

> <E_score1>
-10.55884

> <E_refine>
-39.09873

> <E_score2>
-6.668845

>  <$File>
outputs/pdb_4j58_cleaned.pdb_2024_06_17__22_47_40_V2_BS398_MIN1_/SDF/sdf_db.sdf

> <Rec_index>
1

>  <PLIF_raw>
[[30,12,12,12,2,2,2,2,2,2],[1056,826,826,829,1651,1655,1659,1657,1653,1650],[70,54,54,54,112,112,112,112,112,112],[3,2,7,7,10,10,10,10,10,10],[0.7,5.1,5.401807322,2.151661142,0.5,0.5,0.5,0.5,0.5,0.5]]

> <FP:PLIF>
6 19 1 16 3 15

>  <PLIF_ligidx>
[12,12,[12,12],12,30,[2,2,2,2,2,2]]

$$$$
299
  MOE2022           3D

 48 52  0  0  0  0  0  0  0  0999 V2000
    7.1650   20.8360   18.9580 C   0  0  0  0  0  0  0  0  0  0  0  0
    6.1990   19.8640   18.7180 C   0  0  0  0  0  0  0  0  0  0  0  0
    5.0100   20.1710   18.0410 C   0  0  0  0  0  0  0  0  0  0  0  0
    4.0070   19.1290   17.7810 C   0  0  0  0  0  0  0  0  0  0  0  0
    3.4210   18.9680   16.5180 C   0  0  0  0  0  0  0  0  0  0  0  0
    3.5880   18.2900   18.8170 C   0  0  0  0  0  0  0  0  0  0  0  0
    2.5560   17.3590   18.6520 C   0  0  0  0  0  0  0  0  0  0  0  0
    2.3950   18.0460   16.3230 C   0  0  0  0  0  0  0  0  0  0  0  0
    2.0710   16.5670   19.7800 C   0  0  0  0  0  0  0  0  0  0  0  0
    1.9740   17.2460   17.3810 C   0  0  0  0  0  0  0  0  0  0  0  0
    1.6960   17.9450   14.9810 C   0  0  0  0  0  0  0  0  0  0  0  0
    0.8740   16.0250   19.8350 N   0  0  0  0  0  0  0  0  0  0  0  0
    2.7660   16.3390   20.8720 N   0  0  0  0  0  0  0  0  0  0  0  0
    1.9720   15.6290   21.6440 N   0  5  0  0  0  0  0  0  0  0  0  0
    2.3070   17.0120   14.0190 N   0  0  0  0  0  0  0  0  0  0  0  0
    4.8160   21.5110   17.6570 C   0  0  0  0  0  0  0  0  0  0  0  0
    3.0160   17.4810   12.9070 C   0  0  0  0  0  0  0  0  0  0  0  0
    0.8200   15.4420   21.0120 N   0  0  0  0  0  0  0  0  0  0  0  0
    3.4570   16.5180   11.9090 C   0  0  0  0  0  0  0  0  0  0  0  0
    3.6500   21.9040   17.0680 O   0  0  0  0  0  0  0  0  0  0  0  0
    3.2510   18.6920   12.8310 O   0  0  0  0  0  0  0  0  0  0  0  0
    4.1160   16.9390   10.7380 C   0  0  0  0  0  0  0  0  0  0  0  0
    6.9610   22.1470   18.5370 C   0  0  0  0  0  0  0  0  0  0  0  0
    5.7810   22.4890   17.8870 C   0  0  0  0  0  0  0  0  0  0  0  0
    4.6030   16.0010    9.8440 C   0  0  0  0  0  0  0  0  0  0  0  0
    3.2490   15.1390   12.1330 C   0  0  0  0  0  0  0  0  0  0  0  0
    5.2740   16.4160    8.7260 O   0  0  0  0  0  0  0  0  0  0  0  0
    4.4190   14.6330   10.0810 C   0  0  0  0  0  0  0  0  0  0  0  0
    2.5520   14.7310   13.3210 C   0  0  0  0  0  0  0  0  0  0  0  0
    2.1010   15.6420   14.2200 C   0  0  0  0  0  0  0  0  0  0  0  0
    4.9200   13.7110    9.2020 O   0  0  0  0  0  0  0  0  0  0  0  0
    3.7340   14.2010   11.2050 C   0  0  0  0  0  0  0  0  0  0  0  0
    8.0610   20.5780   19.4610 H   0  0  0  0  0  0  0  0  0  0  0  0
    6.3720   18.8780   19.0560 H   0  0  0  0  0  0  0  0  0  0  0  0
    3.7450   19.5690   15.7070 H   0  0  0  0  0  0  0  0  0  0  0  0
    4.0410   18.3880   19.7680 H   0  0  0  0  0  0  0  0  0  0  0  0
    1.1890   16.5500   17.2310 H   0  0  0  0  0  0  0  0  0  0  0  0
    0.6680   17.6500   15.1470 H   0  0  0  0  0  0  0  0  0  0  0  0
    1.6020   18.9350   14.5570 H   0  0  0  0  0  0  0  0  0  0  0  0
    3.0180   21.1570   17.0450 H   0  0  0  0  0  0  0  0  0  0  0  0
    4.2550   17.9720   10.5450 H   0  0  0  0  0  0  0  0  0  0  0  0
    7.7020   22.8820   18.7150 H   0  0  0  0  0  0  0  0  0  0  0  0
    5.6140   23.4870   17.5740 H   0  0  0  0  0  0  0  0  0  0  0  0
    5.5310   15.6380    8.1930 H   0  0  0  0  0  0  0  0  0  0  0  0
    2.3880   13.6980   13.4850 H   0  0  0  0  0  0  0  0  0  0  0  0
    1.5740   15.3890   15.1050 H   0  0  0  0  0  0  0  0  0  0  0  0
    4.7190   12.8050    9.5060 H   0  0  0  0  0  0  0  0  0  0  0  0
    3.5780   13.1670   11.3690 H   0  0  0  0  0  0  0  0  0  0  0  0
  1  2  1  0  0  0  0
  1 23  2  0  0  0  0
  1 33  1  0  0  0  0
  2  3  2  0  0  0  0
  2 34  1  0  0  0  0
  3  4  1  0  0  0  0
  3 16  1  0  0  0  0
  4  5  1  0  0  0  0
  4  6  2  0  0  0  0
  5  8  2  0  0  0  0
  5 35  1  0  0  0  0
  6  7  1  0  0  0  0
  6 36  1  0  0  0  0
  7  9  1  0  0  0  0
  7 10  2  0  0  0  0
  8 10  1  0  0  0  0
  8 11  1  0  0  0  0
  9 12  1  0  0  0  0
  9 13  2  0  0  0  0
 10 37  1  0  0  0  0
 11 15  1  0  0  0  0
 11 38  1  0  0  0  0
 11 39  1  0  0  0  0
 12 18  2  0  0  0  0
 13 14  1  0  0  0  0
 14 18  1  0  0  0  0
 15 17  1  0  0  0  0
 15 30  1  0  0  0  0
 16 20  1  0  0  0  0
 16 24  2  0  0  0  0
 17 19  1  0  0  0  0
 17 21  2  0  0  0  0
 19 22  2  0  0  0  0
 19 26  1  0  0  0  0
 20 40  1  0  0  0  0
 22 25  1  0  0  0  0
 22 41  1  0  0  0  0
 23 24  1  0  0  0  0
 23 42  1  0  0  0  0
 24 43  1  0  0  0  0
 25 27  1  0  0  0  0
 25 28  2  0  0  0  0
 26 29  1  0  0  0  0
 26 32  2  0  0  0  0
 27 44  1  0  0  0  0
 28 31  1  0  0  0  0
 28 32  1  0  0  0  0
 29 30  2  0  0  0  0
 29 45  1  0  0  0  0
 30 46  1  0  0  0  0
 31 47  1  0  0  0  0
 32 48  1  0  0  0  0
M  CHG  1  14  -1
M  END
> <rseq>
1

> <mseq>
300

> <S>
-6.716208

> <rmsd_refine>
0.8526683

> <E_conf>
-61.20145

> <E_score1>
-11.94992

> <E_refine>
-39.1726

> <E_score2>
-6.716208

>  <$File>
outputs/pdb_4j58_cleaned.pdb_2024_06_17__22_47_40_V2_BS398_MIN1_/SDF/sdf_db.sdf

> <Rec_index>
1

>  <PLIF_raw>
[[18,18,14,14,18,18,4,6,7,10,8,5],[1206,1212,1206,1212,1206,1212,954,954,954,954,954,954],[81,81,81,81,81,81,62,62,62,62,62,62],[2,2,7,7,7,7,10,10,10,10,10,10],[4,0.7,1.818025885,1.388559195,3.249361293,3.866762602,0.8,0.8,0.8,0.8,0.8,0.8]]

> <FP:PLIF>
21 17 18 24 25

>  <PLIF_ligidx>
[[4,6,7,10,8,5],[18,18],18,[14,14,18,18],18]

$$$$
312
  MOE2022           3D

 59 61  0  0  1  0  0  0  0  0999 V2000
    3.3670   17.4660   19.3310 O   0  0  0  0  0  0  0  0  0  0  0  0
    2.4700   17.7240   18.5310 C   0  0  0  0  0  0  0  0  0  0  0  0
    2.6620   18.7350   17.6240 N   0  0  0  0  0  0  0  0  0  0  0  0
    1.2050   16.9850   18.4790 C   0  0  0  0  0  0  0  0  0  0  0  0
    0.1320   17.4150   17.6780 C   0  0  0  0  0  0  0  0  0  0  0  0
   -1.0420   16.6750   17.6080 C   0  0  0  0  0  0  0  0  0  0  0  0
    1.0530   15.8020   19.2170 C   0  0  0  0  0  0  0  0  0  0  0  0
    3.9500   19.3280   17.2650 C   0  0  1  0  0  0  0  0  0  0  0  0
   -0.1220   15.0620   19.1370 C   0  0  0  0  0  0  0  0  0  0  0  0
   -1.1700   15.4970   18.3350 C   0  0  0  0  0  0  0  0  0  0  0  0
    3.9580   19.7180   15.7810 C   0  0  0  0  0  0  0  0  0  0  0  0
    3.6000   18.7870   14.7890 C   0  0  0  0  0  0  0  0  0  0  0  0
    3.3350   17.4820   15.1090 O   0  0  0  0  0  0  0  0  0  0  0  0
    3.5100   19.1390   13.4460 C   0  0  0  0  0  0  0  0  0  0  0  0
    3.8140   20.4460   13.0750 C   0  0  0  0  0  0  0  0  0  0  0  0
    4.2780   20.4900   18.2190 C   0  0  0  0  0  0  0  0  0  0  0  0
    3.6960   20.8920   11.7690 O   0  0  0  0  0  0  0  0  0  0  0  0
    4.2290   21.3740   14.0300 C   0  0  0  0  0  0  0  0  0  0  0  0
    5.3470   21.4420   17.6780 C   0  0  1  0  0  0  0  0  0  0  0  0
    4.3170   21.0130   15.3770 C   0  0  0  0  0  0  0  0  0  0  0  0
    3.9620   20.2840   10.4610 C   0  0  0  0  0  0  0  0  0  0  0  0
    4.7870   22.0550   16.3830 C   0  0  0  0  0  0  0  0  0  0  0  0
    3.4200   18.8850   10.2480 C   0  0  0  0  0  0  0  0  0  0  0  0
    5.7290   22.4950   18.7290 C   0  0  0  0  0  0  0  0  0  0  0  0
    2.2150   18.6550   10.3070 O   0  0  0  0  0  0  0  0  0  0  0  0
    4.3370   17.9450    9.9570 N   0  0  0  0  0  0  0  0  0  0  0  0
    6.8390   22.3630   19.2890 O   0  0  0  0  0  0  0  0  0  0  0  0
    4.9040   23.3980   18.9950 O   0  5  0  0  0  0  0  0  0  0  0  0
    4.1010   16.5340    9.6480 C   0  0  0  0  0  0  0  0  0  0  0  0
    3.4710   15.8030   10.8470 C   0  0  0  0  0  0  0  0  0  0  0  0
    3.2710   16.3880    8.3610 C   0  0  0  0  0  0  0  0  0  0  0  0
    5.4710   15.8870    9.3730 C   0  0  0  0  0  0  0  0  0  0  0  0
    1.8860   18.9660   16.9890 H   0  0  0  0  0  0  0  0  0  0  0  0
    0.2030   18.3090   17.1150 H   0  0  0  0  0  0  0  0  0  0  0  0
   -1.8420   17.0090   16.9980 H   0  0  0  0  0  0  0  0  0  0  0  0
    1.8450   15.4560   19.8300 H   0  0  0  0  0  0  0  0  0  0  0  0
    4.7230   18.5860   17.3880 H   0  0  0  0  0  0  0  0  0  0  0  0
   -0.2190   14.1600   19.6780 H   0  0  0  0  0  0  0  0  0  0  0  0
   -2.0630   14.9300   18.2750 H   0  0  0  0  0  0  0  0  0  0  0  0
    3.0350   16.9850   14.3230 H   0  0  0  0  0  0  0  0  0  0  0  0
    3.2050   18.4210   12.7350 H   0  0  0  0  0  0  0  0  0  0  0  0
    3.3690   21.0680   18.3980 H   0  0  0  0  0  0  0  0  0  0  0  0
    4.6140   20.0750   19.1700 H   0  0  0  0  0  0  0  0  0  0  0  0
    4.4710   22.3610   13.7280 H   0  0  0  0  0  0  0  0  0  0  0  0
    6.2380   20.8610   17.4320 H   0  0  0  0  0  0  0  0  0  0  0  0
    3.5350   20.9370    9.7120 H   0  0  0  0  0  0  0  0  0  0  0  0
    5.0280   20.3120   10.2850 H   0  0  0  0  0  0  0  0  0  0  0  0
    3.9400   22.7000   16.6220 H   0  0  0  0  0  0  0  0  0  0  0  0
    5.5630   22.6720   15.9290 H   0  0  0  0  0  0  0  0  0  0  0  0
    5.2970   18.2430    9.8770 H   0  0  0  0  0  0  0  0  0  0  0  0
    2.4630   16.1740   11.0300 H   0  0  0  0  0  0  0  0  0  0  0  0
    3.4080   14.7340   10.6420 H   0  0  0  0  0  0  0  0  0  0  0  0
    4.0700   15.9580   11.7430 H   0  0  0  0  0  0  0  0  0  0  0  0
    3.7460   16.9310    7.5430 H   0  0  0  0  0  0  0  0  0  0  0  0
    3.1860   15.3360    8.0880 H   0  0  0  0  0  0  0  0  0  0  0  0
    2.2660   16.7830    8.5100 H   0  0  0  0  0  0  0  0  0  0  0  0
    5.3480   14.8300    9.1340 H   0  0  0  0  0  0  0  0  0  0  0  0
    5.9570   16.3780    8.5280 H   0  0  0  0  0  0  0  0  0  0  0  0
    6.1170   15.9710   10.2450 H   0  0  0  0  0  0  0  0  0  0  0  0
  1  2  2  0  0  0  0
  2  3  1  0  0  0  0
  2  4  1  0  0  0  0
  3  8  1  0  0  0  0
  3 33  1  0  0  0  0
  4  5  2  0  0  0  0
  4  7  1  0  0  0  0
  5  6  1  0  0  0  0
  5 34  1  0  0  0  0
  6 10  2  0  0  0  0
  6 35  1  0  0  0  0
  7  9  2  0  0  0  0
  7 36  1  0  0  0  0
  8 11  1  0  0  0  0
  8 16  1  0  0  0  0
  8 37  1  0  0  0  0
  9 10  1  0  0  0  0
  9 38  1  0  0  0  0
 10 39  1  0  0  0  0
 11 12  1  0  0  0  0
 11 20  2  0  0  0  0
 12 13  1  0  0  0  0
 12 14  2  0  0  0  0
 13 40  1  0  0  0  0
 14 15  1  0  0  0  0
 14 41  1  0  0  0  0
 15 17  1  0  0  0  0
 15 18  2  0  0  0  0
 16 19  1  0  0  0  0
 16 42  1  0  0  0  0
 16 43  1  0  0  0  0
 17 21  1  0  0  0  0
 18 20  1  0  0  0  0
 18 44  1  0  0  0  0
 19 22  1  0  0  0  0
 19 24  1  0  0  0  0
 19 45  1  0  0  0  0
 20 22  1  0  0  0  0
 21 23  1  0  0  0  0
 21 46  1  0  0  0  0
 21 47  1  0  0  0  0
 22 48  1  0  0  0  0
 22 49  1  0  0  0  0
 23 25  2  0  0  0  0
 23 26  1  0  0  0  0
 24 27  2  0  0  0  0
 24 28  1  0  0  0  0
 26 29  1  0  0  0  0
 26 50  1  0  0  0  0
 29 30  1  0  0  0  0
 29 31  1  0  0  0  0
 29 32  1  0  0  0  0
 30 51  1  0  0  0  0
 30 52  1  0  0  0  0
 30 53  1  0  0  0  0
 31 54  1  0  0  0  0
 31 55  1  0  0  0  0
 31 56  1  0  0  0  0
 32 57  1  0  0  0  0
 32 58  1  0  0  0  0
 32 59  1  0  0  0  0
M  CHG  1  28  -1
M  END
> <rseq>
1

> <mseq>
313

> <S>
-5.94855

> <rmsd_refine>
1.998701

> <E_conf>
-188.6709

> <E_score1>
-11.43493

> <E_refine>
-30.75816

> <E_score2>
-5.94855

>  <$File>
outputs/pdb_4j58_cleaned.pdb_2024_06_17__22_47_40_V2_BS398_MIN1_/SDF/sdf_db.sdf

> <Rec_index>
1

>  <PLIF_raw>
[[26,28,27,28],[2222,1872,1872,1872],[148,125,125,125],[3,2,7,7],[3.3,0.7,2.245357053,3.688526106]]

> <FP:PLIF>
29 13 31 39 40

>  <PLIF_ligidx>
[28,[27,28],28,26,26]

$$$$
313
  MOE2022           3D

 61 63  0  0  1  0  0  0  0  0999 V2000
    2.1800   16.3630   20.6230 C   0  0  0  0  0  0  0  0  0  0  0  0
    0.8630   15.9400   20.7430 C   0  0  0  0  0  0  0  0  0  0  0  0
    2.6280   16.9040   19.4240 C   0  0  0  0  0  0  0  0  0  0  0  0
   -0.0010   16.0380   19.6590 C   0  0  0  0  0  0  0  0  0  0  0  0
    0.4470   16.5780   18.4580 C   0  0  0  0  0  0  0  0  0  0  0  0
    1.7630   17.0250   18.3330 C   0  0  0  0  0  0  0  0  0  0  0  0
    2.2330   17.6080   17.0080 C   0  0  1  0  0  0  0  0  0  0  0  0
    3.2270   18.6760   17.2200 N   0  0  0  0  0  0  0  0  0  0  0  0
    2.7430   16.5170   16.0720 C   0  0  0  0  0  0  0  0  0  0  0  0
    3.8220   19.4140   16.2240 C   0  0  0  0  0  0  0  0  0  0  0  0
    2.1860   16.4460   14.8530 N   0  0  0  0  0  0  0  0  0  0  0  0
    3.3610   19.3170   15.0880 O   0  0  0  0  0  0  0  0  0  0  0  0
    4.9790   20.2520   16.5670 C   0  0  0  0  0  0  0  0  0  0  0  0
    3.6740   15.7810   16.3950 O   0  0  0  0  0  0  0  0  0  0  0  0
    2.7770   15.6920   13.7560 C   0  0  1  0  0  0  0  0  0  0  0  0
    1.8870   14.5850   13.1990 C   0  0  0  0  0  0  0  0  0  0  0  0
    2.9960   16.5560   12.5210 C   0  0  0  0  0  0  0  0  0  0  0  0
    5.7130   20.0100   17.7450 C   0  0  0  0  0  0  0  0  0  0  0  0
    2.5260   14.3460   11.8230 C   0  0  0  0  0  0  0  0  0  0  0  0
    5.4290   21.2910   15.7220 C   0  0  0  0  0  0  0  0  0  0  0  0
    3.2240   15.5820   11.4680 N   0  0  0  0  0  0  0  0  0  0  0  0
    6.8610   20.7360   18.0520 C   0  0  0  0  0  0  0  0  0  0  0  0
    4.7720   21.6000   14.5670 O   0  0  0  0  0  0  0  0  0  0  0  0
    4.1420   15.7440   10.4930 C   0  0  0  0  0  0  0  0  0  0  0  0
    7.2780   21.7420   17.1730 C   0  0  0  0  0  0  0  0  0  0  0  0
    8.4080   22.4590   17.4370 O   0  0  0  0  0  0  0  0  0  0  0  0
    6.5660   22.0340   16.0170 C   0  0  0  0  0  0  0  0  0  0  0  0
    4.7210   16.8160   10.3140 O   0  0  0  0  0  0  0  0  0  0  0  0
    4.5500   14.5460    9.6290 C   0  0  0  0  0  0  0  0  0  0  0  0
    5.7550   13.8110   10.2380 C   0  0  0  0  0  0  0  0  0  0  0  0
    6.1260   12.5690    9.4250 C   0  0  0  0  0  0  0  0  0  0  0  0
    7.6450   20.4200   19.3090 C   0  0  0  0  0  0  0  0  0  0  0  0
    2.8420   16.2740   21.4450 H   0  0  0  0  0  0  0  0  0  0  0  0
    0.5230   15.5460   21.6600 H   0  0  0  0  0  0  0  0  0  0  0  0
    3.6330   17.2230   19.3520 H   0  0  0  0  0  0  0  0  0  0  0  0
   -1.0040   15.7070   19.7480 H   0  0  0  0  0  0  0  0  0  0  0  0
   -0.2190   16.6500   17.6370 H   0  0  0  0  0  0  0  0  0  0  0  0
    1.3760   18.0730   16.5390 H   0  0  0  0  0  0  0  0  0  0  0  0
    3.5620   18.7980   18.1870 H   0  0  0  0  0  0  0  0  0  0  0  0
    1.4270   17.0700   14.6260 H   0  0  0  0  0  0  0  0  0  0  0  0
    3.7280   15.2500   14.0500 H   0  0  0  0  0  0  0  0  0  0  0  0
    1.9190   13.6900   13.8190 H   0  0  0  0  0  0  0  0  0  0  0  0
    0.8630   14.9440   13.0780 H   0  0  0  0  0  0  0  0  0  0  0  0
    2.1010   17.1370   12.2970 H   0  0  0  0  0  0  0  0  0  0  0  0
    3.8440   17.2210   12.6690 H   0  0  0  0  0  0  0  0  0  0  0  0
    5.4040   19.2450   18.4090 H   0  0  0  0  0  0  0  0  0  0  0  0
    3.2400   13.5270   11.8940 H   0  0  0  0  0  0  0  0  0  0  0  0
    1.7590   14.1060   11.0860 H   0  0  0  0  0  0  0  0  0  0  0  0
    3.9950   21.0120   14.4540 H   0  0  0  0  0  0  0  0  0  0  0  0
    8.8430   22.1320   18.2480 H   0  0  0  0  0  0  0  0  0  0  0  0
    6.8900   22.8070   15.3680 H   0  0  0  0  0  0  0  0  0  0  0  0
    3.7150   13.8560    9.5120 H   0  0  0  0  0  0  0  0  0  0  0  0
    4.8210   14.9080    8.6360 H   0  0  0  0  0  0  0  0  0  0  0  0
    6.6100   14.4890   10.2620 H   0  0  0  0  0  0  0  0  0  0  0  0
    5.5220   13.5080   11.2590 H   0  0  0  0  0  0  0  0  0  0  0  0
    5.2990   11.8580    9.4370 H   0  0  0  0  0  0  0  0  0  0  0  0
    6.3450   12.8520    8.3960 H   0  0  0  0  0  0  0  0  0  0  0  0
    7.0060   12.0990    9.8650 H   0  0  0  0  0  0  0  0  0  0  0  0
    7.7410   21.3110   19.9290 H   0  0  0  0  0  0  0  0  0  0  0  0
    7.1540   19.6480   19.9010 H   0  0  0  0  0  0  0  0  0  0  0  0
    8.6430   20.0640   19.0490 H   0  0  0  0  0  0  0  0  0  0  0  0
  1  2  2  0  0  0  0
  1  3  1  0  0  0  0
  1 33  1  0  0  0  0
  2  4  1  0  0  0  0
  2 34  1  0  0  0  0
  3  6  2  0  0  0  0
  3 35  1  0  0  0  0
  4  5  2  0  0  0  0
  4 36  1  0  0  0  0
  5  6  1  0  0  0  0
  5 37  1  0  0  0  0
  6  7  1  0  0  0  0
  7  8  1  0  0  0  0
  7  9  1  0  0  0  0
  7 38  1  0  0  0  0
  8 10  1  0  0  0  0
  8 39  1  0  0  0  0
  9 11  1  0  0  0  0
  9 14  2  0  0  0  0
 10 12  2  0  0  0  0
 10 13  1  0  0  0  0
 11 15  1  0  0  0  0
 11 40  1  0  0  0  0
 13 18  2  0  0  0  0
 13 20  1  0  0  0  0
 15 16  1  0  0  0  0
 15 17  1  0  0  0  0
 15 41  1  0  0  0  0
 16 19  1  0  0  0  0
 16 42  1  0  0  0  0
 16 43  1  0  0  0  0
 17 21  1  0  0  0  0
 17 44  1  0  0  0  0
 17 45  1  0  0  0  0
 18 22  1  0  0  0  0
 18 46  1  0  0  0  0
 19 21  1  0  0  0  0
 19 47  1  0  0  0  0
 19 48  1  0  0  0  0
 20 23  1  0  0  0  0
 20 27  2  0  0  0  0
 21 24  1  0  0  0  0
 22 25  2  0  0  0  0
 22 32  1  0  0  0  0
 23 49  1  0  0  0  0
 24 28  2  0  0  0  0
 24 29  1  0  0  0  0
 25 26  1  0  0  0  0
 25 27  1  0  0  0  0
 26 50  1  0  0  0  0
 27 51  1  0  0  0  0
 29 30  1  0  0  0  0
 29 52  1  0  0  0  0
 29 53  1  0  0  0  0
 30 31  1  0  0  0  0
 30 54  1  0  0  0  0
 30 55  1  0  0  0  0
 31 56  1  0  0  0  0
 31 57  1  0  0  0  0
 31 58  1  0  0  0  0
 32 59  1  0  0  0  0
 32 60  1  0  0  0  0
 32 61  1  0  0  0  0
M  END
> <rseq>
1

> <mseq>
314

> <S>
-7.630092

> <rmsd_refine>
1.541403

> <E_conf>
-9.369264

> <E_score1>
-10.03716

> <E_refine>
-45.61411

> <E_score2>
-7.630092

>  <$File>
outputs/pdb_4j58_cleaned.pdb_2024_06_17__22_47_40_V2_BS398_MIN1_/SDF/sdf_db.sdf

> <Rec_index>
1

>  <PLIF_raw>
[[14,28],[954,823],[62,54],[2,2],[1.7,1.1]]

> <FP:PLIF>
6 20 23

>  <PLIF_ligidx>
[28,14,14]

$$$$
314
  MOE2022           3D

 59 61  0  0  1  0  0  0  0  0999 V2000
    2.7330   16.2040   21.0060 C   0  0  0  0  0  0  0  0  0  0  0  0
    1.5260   15.6820   21.4420 C   0  0  0  0  0  0  0  0  0  0  0  0
    2.8060   16.8960   19.8050 C   0  0  0  0  0  0  0  0  0  0  0  0
    0.3860   15.8360   20.6620 C   0  0  0  0  0  0  0  0  0  0  0  0
    0.4600   16.5130   19.4500 C   0  0  0  0  0  0  0  0  0  0  0  0
    1.6670   17.0620   19.0130 C   0  0  0  0  0  0  0  0  0  0  0  0
    1.7030   17.8170   17.6900 C   0  0  1  0  0  0  0  0  0  0  0  0
    2.9290   18.6150   17.5470 N   0  0  0  0  0  0  0  0  0  0  0  0
    1.4560   16.8500   16.5100 C   0  0  0  0  0  0  0  0  0  0  0  0
    2.9290   19.9570   17.5390 C   0  0  0  0  0  0  0  0  0  0  0  0
    1.5090   17.4280   15.1320 N   0  0  0  0  0  0  0  0  0  0  0  0
    0.5890   18.3860   14.7210 C   0  0  0  0  0  0  0  0  0  0  0  0
   -0.3570   18.7520   15.5990 O   0  0  0  0  0  0  0  0  0  0  0  0
    2.4730   16.9490   14.2140 C   0  0  0  0  0  0  0  0  0  0  0  0
    4.2110   20.6410   18.0560 C   0  0  1  0  0  0  0  0  0  0  0  0
    3.3120   16.1380   14.6400 O   0  0  0  0  0  0  0  0  0  0  0  0
    2.4360   17.4410   12.8540 C   0  0  0  0  0  0  0  0  0  0  0  0
    3.2960   16.8600   11.8430 C   0  0  0  0  0  0  0  0  0  0  0  0
    3.7390   15.7180   11.8710 O   0  0  0  0  0  0  0  0  0  0  0  0
    1.9380   20.6200   17.2360 O   0  0  0  0  0  0  0  0  0  0  0  0
    0.6260   18.9250   13.4570 C   0  0  0  0  0  0  0  0  0  0  0  0
    3.6250   17.6300   10.7710 O   0  0  0  0  0  0  0  0  0  0  0  0
    5.4020   20.5010   17.0970 C   0  0  0  0  0  0  0  0  0  0  0  0
    1.5540   18.4490   12.5220 C   0  0  0  0  0  0  0  0  0  0  0  0
    3.9920   22.0520   18.3650 N   0  0  0  0  0  0  0  0  0  0  0  0
    4.9760   22.9340   18.5710 C   0  0  0  0  0  0  0  0  0  0  0  0
    6.6620   21.1760   17.6990 C   0  0  0  0  0  0  0  0  0  0  0  0
    4.7720   23.9950   19.1520 O   0  0  0  0  0  0  0  0  0  0  0  0
    6.3440   22.6710   17.9260 C   0  0  0  0  0  0  0  0  0  0  0  0
    4.4020   17.1320    9.6510 C   0  0  0  0  0  0  0  0  0  0  0  0
    7.8310   21.0560   16.7040 C   0  0  0  0  0  0  0  0  0  0  0  0
    7.1180   20.5220   19.0230 C   0  0  0  0  0  0  0  0  0  0  0  0
    3.6040   16.0740   21.5890 H   0  0  0  0  0  0  0  0  0  0  0  0
    1.4890   15.1710   22.3670 H   0  0  0  0  0  0  0  0  0  0  0  0
    3.7380   17.2940   19.5080 H   0  0  0  0  0  0  0  0  0  0  0  0
   -0.5420   15.4410   20.9860 H   0  0  0  0  0  0  0  0  0  0  0  0
   -0.4130   16.6140   18.8580 H   0  0  0  0  0  0  0  0  0  0  0  0
    0.8670   18.4990   17.7260 H   0  0  0  0  0  0  0  0  0  0  0  0
    3.7960   18.1420   17.7440 H   0  0  0  0  0  0  0  0  0  0  0  0
    2.1450   16.0260   16.6220 H   0  0  0  0  0  0  0  0  0  0  0  0
    0.4920   16.3790   16.6480 H   0  0  0  0  0  0  0  0  0  0  0  0
   -0.2550   18.2860   16.4500 H   0  0  0  0  0  0  0  0  0  0  0  0
    4.4640   20.1350   18.9870 H   0  0  0  0  0  0  0  0  0  0  0  0
   -0.0620   19.6820   13.1790 H   0  0  0  0  0  0  0  0  0  0  0  0
    5.5960   19.4450   16.9240 H   0  0  0  0  0  0  0  0  0  0  0  0
    5.1490   20.9670   16.1430 H   0  0  0  0  0  0  0  0  0  0  0  0
    1.5440   18.8550   11.5420 H   0  0  0  0  0  0  0  0  0  0  0  0
    3.0560   22.3050   18.6510 H   0  0  0  0  0  0  0  0  0  0  0  0
    6.3370   23.1770   16.9600 H   0  0  0  0  0  0  0  0  0  0  0  0
    7.1250   23.1250   18.5370 H   0  0  0  0  0  0  0  0  0  0  0  0
    4.5600   17.9270    8.9220 H   0  0  0  0  0  0  0  0  0  0  0  0
    5.3740   16.7710    9.9880 H   0  0  0  0  0  0  0  0  0  0  0  0
    3.8750   16.3120    9.1600 H   0  0  0  0  0  0  0  0  0  0  0  0
    8.0950   20.0080   16.5650 H   0  0  0  0  0  0  0  0  0  0  0  0
    7.5550   21.4850   15.7400 H   0  0  0  0  0  0  0  0  0  0  0  0
    8.7040   21.5880   17.0840 H   0  0  0  0  0  0  0  0  0  0  0  0
    7.2530   19.4490   18.8840 H   0  0  0  0  0  0  0  0  0  0  0  0
    8.0680   20.9530   19.3450 H   0  0  0  0  0  0  0  0  0  0  0  0
    6.3910   20.6900   19.8170 H   0  0  0  0  0  0  0  0  0  0  0  0
  1  2  2  0  0  0  0
  1  3  1  0  0  0  0
  1 33  1  0  0  0  0
  2  4  1  0  0  0  0
  2 34  1  0  0  0  0
  3  6  2  0  0  0  0
  3 35  1  0  0  0  0
  4  5  2  0  0  0  0
  4 36  1  0  0  0  0
  5  6  1  0  0  0  0
  5 37  1  0  0  0  0
  6  7  1  0  0  0  0
  7  8  1  0  0  0  0
  7  9  1  0  0  0  0
  7 38  1  0  0  0  0
  8 10  1  0  0  0  0
  8 39  1  0  0  0  0
  9 11  1  0  0  0  0
  9 40  1  0  0  0  0
  9 41  1  0  0  0  0
 10 15  1  0  0  0  0
 10 20  2  0  0  0  0
 11 12  1  0  0  0  0
 11 14  1  0  0  0  0
 12 13  1  0  0  0  0
 12 21  2  0  0  0  0
 13 42  1  0  0  0  0
 14 16  2  0  0  0  0
 14 17  1  0  0  0  0
 15 23  1  0  0  0  0
 15 25  1  0  0  0  0
 15 43  1  0  0  0  0
 17 18  1  0  0  0  0
 17 24  2  0  0  0  0
 18 19  2  0  0  0  0
 18 22  1  0  0  0  0
 21 24  1  0  0  0  0
 21 44  1  0  0  0  0
 22 30  1  0  0  0  0
 23 27  1  0  0  0  0
 23 45  1  0  0  0  0
 23 46  1  0  0  0  0
 24 47  1  0  0  0  0
 25 26  1  0  0  0  0
 25 48  1  0  0  0  0
 26 28  2  0  0  0  0
 26 29  1  0  0  0  0
 27 29  1  0  0  0  0
 27 31  1  0  0  0  0
 27 32  1  0  0  0  0
 29 49  1  0  0  0  0
 29 50  1  0  0  0  0
 30 51  1  0  0  0  0
 30 52  1  0  0  0  0
 30 53  1  0  0  0  0
 31 54  1  0  0  0  0
 31 55  1  0  0  0  0
 31 56  1  0  0  0  0
 32 57  1  0  0  0  0
 32 58  1  0  0  0  0
 32 59  1  0  0  0  0
M  END
> <rseq>
1

> <mseq>
315

> <S>
-6.818445

> <rmsd_refine>
1.368568

> <E_conf>
-74.37995

> <E_score1>
-9.499626

> <E_refine>
-35.30101

> <E_score2>
-6.818445

>  <$File>
outputs/pdb_4j58_cleaned.pdb_2024_06_17__22_47_40_V2_BS398_MIN1_/SDF/sdf_db.sdf

> <Rec_index>
1

>  <PLIF_raw>
[28,1872,125,2,2]

> <FP:PLIF>
29 46

>  <PLIF_ligidx>
[28,28]

$$$$
315
  MOE2022           3D

 55 58  0  0  1  0  0  0  0  0999 V2000
    3.5730   17.6500   19.7620 O   0  0  0  0  0  0  0  0  0  0  0  0
    2.6320   17.3070   19.0400 C   0  0  0  0  0  0  0  0  0  0  0  0
    1.5440   16.4760   19.4760 C   0  0  0  0  0  0  0  0  0  0  0  0
    2.6200   17.7320   17.7080 N   0  0  0  0  0  0  0  0  0  0  0  0
    0.5690   16.1360   18.5870 C   0  0  0  0  0  0  0  0  0  0  0  0
    1.6050   17.2990   16.8400 C   0  0  0  0  0  0  0  0  0  0  0  0
    0.6310   16.5540   17.2780 N   0  0  0  0  0  0  0  0  0  0  0  0
    1.6960   17.6830   15.4440 C   0  0  0  0  0  0  0  0  0  0  0  0
    3.7100   18.6360   17.2290 C   0  0  0  0  0  0  0  0  0  0  0  0
    1.5130   16.0000   20.9210 C   0  0  0  0  0  0  0  0  0  0  0  0
   -0.6140   15.2620   18.9510 C   0  0  0  0  0  0  0  0  0  0  0  0
    3.4740   20.1480   17.4100 C   0  0  1  0  0  0  0  0  0  0  0  0
    4.7010   20.8210   17.9520 C   0  0  0  0  0  0  0  0  0  0  0  0
    0.9630   18.7740   14.9560 C   0  0  0  0  0  0  0  0  0  0  0  0
    3.2920   20.9070   16.0830 C   0  0  0  0  0  0  0  0  0  0  0  0
    1.1170   19.1980   13.6430 C   0  0  0  0  0  0  0  0  0  0  0  0
    2.0080   18.5300   12.7980 C   0  0  0  0  0  0  0  0  0  0  0  0
    2.1470   19.0220   11.5250 O   0  0  0  0  0  0  0  0  0  0  0  0
    2.5390   16.9910   14.5560 C   0  0  0  0  0  0  0  0  0  0  0  0
    3.2070   15.8770   14.9820 O   0  0  0  0  0  0  0  0  0  0  0  0
    4.3910   21.8760   15.9460 O   0  0  0  0  0  0  0  0  0  0  0  0
    3.1550   18.5990   10.5780 C   0  0  0  0  0  0  0  0  0  0  0  0
    2.7180   17.4130   13.2420 C   0  0  0  0  0  0  0  0  0  0  0  0
    5.1670   21.7730   17.0680 C   0  0  0  0  0  0  0  0  0  0  0  0
    6.3110   22.5200   17.3240 C   0  0  0  0  0  0  0  0  0  0  0  0
    7.0030   22.2860   18.5110 C   0  0  0  0  0  0  0  0  0  0  0  0
    3.0920   19.4180    9.2880 C   0  0  0  0  0  0  0  0  0  0  0  0
    6.5440   21.3240   19.4160 C   0  0  0  0  0  0  0  0  0  0  0  0
    5.3870   20.5920   19.1420 C   0  0  0  0  0  0  0  0  0  0  0  0
    4.2360   19.0780    8.3390 C   0  0  0  0  0  0  0  0  0  0  0  0
    4.4440   17.8680    8.1010 O   0  5  0  0  0  0  0  0  0  0  0  0
    4.8860   20.0370    7.8700 O   0  0  0  0  0  0  0  0  0  0  0  0
    4.6190   18.4060   17.7560 H   0  0  0  0  0  0  0  0  0  0  0  0
    3.9930   18.4210   16.2090 H   0  0  0  0  0  0  0  0  0  0  0  0
    0.7390   16.5090   21.4780 H   0  0  0  0  0  0  0  0  0  0  0  0
    1.3250   14.9390   20.9750 H   0  0  0  0  0  0  0  0  0  0  0  0
    2.4480   16.1690   21.4370 H   0  0  0  0  0  0  0  0  0  0  0  0
   -1.0550   15.5540   19.8940 H   0  0  0  0  0  0  0  0  0  0  0  0
   -1.3950   15.3170   18.2050 H   0  0  0  0  0  0  0  0  0  0  0  0
   -0.3190   14.2240   19.0300 H   0  0  0  0  0  0  0  0  0  0  0  0
    2.6350   20.3300   18.0790 H   0  0  0  0  0  0  0  0  0  0  0  0
    0.2950   19.2880   15.6000 H   0  0  0  0  0  0  0  0  0  0  0  0
    3.3200   20.2260   15.2320 H   0  0  0  0  0  0  0  0  0  0  0  0
    2.3430   21.4440   16.0910 H   0  0  0  0  0  0  0  0  0  0  0  0
    0.5700   20.0300   13.2810 H   0  0  0  0  0  0  0  0  0  0  0  0
    2.8790   15.5920   15.8600 H   0  0  0  0  0  0  0  0  0  0  0  0
    4.1370   18.7270   11.0330 H   0  0  0  0  0  0  0  0  0  0  0  0
    3.0010   17.5450   10.3430 H   0  0  0  0  0  0  0  0  0  0  0  0
    3.3740   16.8860   12.5990 H   0  0  0  0  0  0  0  0  0  0  0  0
    6.6490   23.2460   16.6300 H   0  0  0  0  0  0  0  0  0  0  0  0
    7.8820   22.8350   18.7260 H   0  0  0  0  0  0  0  0  0  0  0  0
    2.1460   19.2220    8.7840 H   0  0  0  0  0  0  0  0  0  0  0  0
    3.1400   20.4770    9.5400 H   0  0  0  0  0  0  0  0  0  0  0  0
    7.0800   21.1480   20.3130 H   0  0  0  0  0  0  0  0  0  0  0  0
    5.0410   19.8630   19.8280 H   0  0  0  0  0  0  0  0  0  0  0  0
  1  2  2  0  0  0  0
  2  3  1  0  0  0  0
  2  4  1  0  0  0  0
  3  5  2  0  0  0  0
  3 10  1  0  0  0  0
  4  6  1  0  0  0  0
  4  9  1  0  0  0  0
  5  7  1  0  0  0  0
  5 11  1  0  0  0  0
  6  7  2  0  0  0  0
  6  8  1  0  0  0  0
  8 14  1  0  0  0  0
  8 19  2  0  0  0  0
  9 12  1  0  0  0  0
  9 33  1  0  0  0  0
  9 34  1  0  0  0  0
 10 35  1  0  0  0  0
 10 36  1  0  0  0  0
 10 37  1  0  0  0  0
 11 38  1  0  0  0  0
 11 39  1  0  0  0  0
 11 40  1  0  0  0  0
 12 13  1  0  0  0  0
 12 15  1  0  0  0  0
 12 41  1  0  0  0  0
 13 24  2  0  0  0  0
 13 29  1  0  0  0  0
 14 16  2  0  0  0  0
 14 42  1  0  0  0  0
 15 21  1  0  0  0  0
 15 43  1  0  0  0  0
 15 44  1  0  0  0  0
 16 17  1  0  0  0  0
 16 45  1  0  0  0  0
 17 18  1  0  0  0  0
 17 23  2  0  0  0  0
 18 22  1  0  0  0  0
 19 20  1  0  0  0  0
 19 23  1  0  0  0  0
 20 46  1  0  0  0  0
 21 24  1  0  0  0  0
 22 27  1  0  0  0  0
 22 47  1  0  0  0  0
 22 48  1  0  0  0  0
 23 49  1  0  0  0  0
 24 25  1  0  0  0  0
 25 26  2  0  0  0  0
 25 50  1  0  0  0  0
 26 28  1  0  0  0  0
 26 51  1  0  0  0  0
 27 30  1  0  0  0  0
 27 52  1  0  0  0  0
 27 53  1  0  0  0  0
 28 29  2  0  0  0  0
 28 54  1  0  0  0  0
 29 55  1  0  0  0  0
 30 31  1  0  0  0  0
 30 32  2  0  0  0  0
M  CHG  1  31  -1
M  END
> <rseq>
1

> <mseq>
316

> <S>
-6.206027

> <rmsd_refine>
0.8156098

> <E_conf>
-162.4356

> <E_score1>
-12.99347

> <E_refine>
-31.46622

> <E_score2>
-6.206027

>  <$File>
outputs/pdb_4j58_cleaned.pdb_2024_06_17__22_47_40_V2_BS398_MIN1_/SDF/sdf_db.sdf

> <Rec_index>
1

>  <PLIF_raw>
[[2,4,6,7,5,3],[954,954,954,954,954,954],[62,62,62,62,62,62],[10,10,10,10,10,10],[0.5,0.5,0.5,0.5,0.5,0.5]]

> <FP:PLIF>
21

>  <PLIF_ligidx>
[[2,4,6,7,5,3]]

$$$$
316
  MOE2022           3D

 57 59  0  0  1  0  0  0  0  0999 V2000
    3.5980   17.8630   19.1920 O   0  0  0  0  0  0  0  0  0  0  0  0
    2.6500   17.3870   18.5570 C   0  0  0  0  0  0  0  0  0  0  0  0
    1.5940   16.6110   19.1530 C   0  0  0  0  0  0  0  0  0  0  0  0
    2.5940   17.5880   17.1680 N   0  0  0  0  0  0  0  0  0  0  0  0
    0.5990   16.1240   18.3620 C   0  0  0  0  0  0  0  0  0  0  0  0
    1.6100   16.9290   16.4100 C   0  0  0  0  0  0  0  0  0  0  0  0
    0.6440   16.2870   16.9980 N   0  0  0  0  0  0  0  0  0  0  0  0
    1.7180   16.9000   14.9600 C   0  0  0  0  0  0  0  0  0  0  0  0
    3.5700   18.5070   16.5040 C   0  0  0  0  0  0  0  0  0  0  0  0
    1.6200   16.3380   20.6490 C   0  0  0  0  0  0  0  0  0  0  0  0
   -0.5690   15.3180   18.8940 C   0  0  0  0  0  0  0  0  0  0  0  0
    3.1190   19.9860   16.4010 C   0  0  1  0  0  0  0  0  0  0  0  0
    3.1160   20.7140   17.7560 C   0  0  0  0  0  0  0  0  0  0  0  0
    1.1370   17.8890   14.1510 C   0  0  0  0  0  0  0  0  0  0  0  0
    4.0530   20.8460   15.5600 C   0  0  0  0  0  0  0  0  0  0  0  0
    1.1600   17.7670   12.7660 C   0  0  0  0  0  0  0  0  0  0  0  0
    1.7620   16.6470   12.1870 C   0  0  0  0  0  0  0  0  0  0  0  0
    4.4280   20.5510   14.4290 O   0  0  0  0  0  0  0  0  0  0  0  0
    2.3590   15.8100   14.3530 C   0  0  0  0  0  0  0  0  0  0  0  0
    3.6480   22.1230   17.4560 C   0  0  1  0  0  0  0  0  0  0  0  0
    2.3770   15.6760   12.9730 C   0  0  0  0  0  0  0  0  0  0  0  0
    4.4840   22.7080   18.6150 C   0  0  0  0  0  0  0  0  0  0  0  0
    4.0310   23.7160   19.2030 O   0  0  0  0  0  0  0  0  0  0  0  0
    4.3880   21.9510   16.2160 N   0  0  0  0  0  0  0  0  0  0  0  0
    5.5620   22.1450   18.9120 O   0  5  0  0  0  0  0  0  0  0  0  0
    1.7240   16.4580   10.8330 O   0  0  0  0  0  0  0  0  0  0  0  0
    2.3810   17.3790    9.9340 C   0  0  0  0  0  0  0  0  0  0  0  0
    3.8600   17.0900    9.8170 C   0  0  0  0  0  0  0  0  0  0  0  0
    4.6910   17.7920   10.3850 O   0  0  0  0  0  0  0  0  0  0  0  0
    4.1970   16.0000    9.1120 N   0  0  0  0  0  0  0  0  0  0  0  0
    5.5590   15.5200    8.9210 C   0  0  0  0  0  0  0  0  0  0  0  0
    5.8890   14.4650    9.9760 C   0  0  0  0  0  0  0  0  0  0  0  0
    4.5250   18.4780   17.0090 H   0  0  0  0  0  0  0  0  0  0  0  0
    3.8090   18.1490   15.5120 H   0  0  0  0  0  0  0  0  0  0  0  0
    0.8330   16.8780   21.1550 H   0  0  0  0  0  0  0  0  0  0  0  0
    1.4810   15.2850   20.8520 H   0  0  0  0  0  0  0  0  0  0  0  0
    2.5590   16.6130   21.1060 H   0  0  0  0  0  0  0  0  0  0  0  0
   -1.3930   15.3030   18.1920 H   0  0  0  0  0  0  0  0  0  0  0  0
   -0.2810   14.2910   19.0700 H   0  0  0  0  0  0  0  0  0  0  0  0
   -0.9520   15.7210   19.8200 H   0  0  0  0  0  0  0  0  0  0  0  0
    2.1230   20.0290   15.9630 H   0  0  0  0  0  0  0  0  0  0  0  0
    2.1090   20.7570   18.1700 H   0  0  0  0  0  0  0  0  0  0  0  0
    3.8040   20.2250   18.4430 H   0  0  0  0  0  0  0  0  0  0  0  0
    0.6580   18.7210   14.5990 H   0  0  0  0  0  0  0  0  0  0  0  0
    0.7050   18.5050   12.1570 H   0  0  0  0  0  0  0  0  0  0  0  0
    2.8130   15.0690   14.9570 H   0  0  0  0  0  0  0  0  0  0  0  0
    2.8030   22.7840   17.2610 H   0  0  0  0  0  0  0  0  0  0  0  0
    2.8440   14.8390   12.5200 H   0  0  0  0  0  0  0  0  0  0  0  0
    5.0030   22.6630   15.8520 H   0  0  0  0  0  0  0  0  0  0  0  0
    1.9100   17.2830    8.9660 H   0  0  0  0  0  0  0  0  0  0  0  0
    2.2140   18.3940   10.2700 H   0  0  0  0  0  0  0  0  0  0  0  0
    3.4570   15.4500    8.7000 H   0  0  0  0  0  0  0  0  0  0  0  0
    5.6450   15.0750    7.9300 H   0  0  0  0  0  0  0  0  0  0  0  0
    6.2680   16.3440    8.9950 H   0  0  0  0  0  0  0  0  0  0  0  0
    6.9160   14.1250    9.8460 H   0  0  0  0  0  0  0  0  0  0  0  0
    5.7800   14.8940   10.9710 H   0  0  0  0  0  0  0  0  0  0  0  0
    5.2140   13.6150    9.8760 H   0  0  0  0  0  0  0  0  0  0  0  0
  1  2  2  0  0  0  0
  2  3  1  0  0  0  0
  2  4  1  0  0  0  0
  3  5  2  0  0  0  0
  3 10  1  0  0  0  0
  4  6  1  0  0  0  0
  4  9  1  0  0  0  0
  5  7  1  0  0  0  0
  5 11  1  0  0  0  0
  6  7  2  0  0  0  0
  6  8  1  0  0  0  0
  8 14  1  0  0  0  0
  8 19  2  0  0  0  0
  9 12  1  0  0  0  0
  9 33  1  0  0  0  0
  9 34  1  0  0  0  0
 10 35  1  0  0  0  0
 10 36  1  0  0  0  0
 10 37  1  0  0  0  0
 11 38  1  0  0  0  0
 11 39  1  0  0  0  0
 11 40  1  0  0  0  0
 12 13  1  0  0  0  0
 12 15  1  0  0  0  0
 12 41  1  0  0  0  0
 13 20  1  0  0  0  0
 13 42  1  0  0  0  0
 13 43  1  0  0  0  0
 14 16  2  0  0  0  0
 14 44  1  0  0  0  0
 15 18  2  0  0  0  0
 15 24  1  0  0  0  0
 16 17  1  0  0  0  0
 16 45  1  0  0  0  0
 17 21  2  0  0  0  0
 17 26  1  0  0  0  0
 19 21  1  0  0  0  0
 19 46  1  0  0  0  0
 20 22  1  0  0  0  0
 20 24  1  0  0  0  0
 20 47  1  0  0  0  0
 21 48  1  0  0  0  0
 22 23  2  0  0  0  0
 22 25  1  0  0  0  0
 24 49  1  0  0  0  0
 26 27  1  0  0  0  0
 27 28  1  0  0  0  0
 27 50  1  0  0  0  0
 27 51  1  0  0  0  0
 28 29  2  0  0  0  0
 28 30  1  0  0  0  0
 30 31  1  0  0  0  0
 30 52  1  0  0  0  0
 31 32  1  0  0  0  0
 31 53  1  0  0  0  0
 31 54  1  0  0  0  0
 32 55  1  0  0  0  0
 32 56  1  0  0  0  0
 32 57  1  0  0  0  0
M  CHG  1  25  -1
M  END
> <rseq>
1

> <mseq>
317

> <S>
-6.174438

> <rmsd_refine>
1.175937

> <E_conf>
-85.65251

> <E_score1>
-10.35689

> <E_refine>
-33.33413

> <E_score2>
-6.174438

>  <$File>
outputs/pdb_4j58_cleaned.pdb_2024_06_17__22_47_40_V2_BS398_MIN1_/SDF/sdf_db.sdf

> <Rec_index>
1

>  <PLIF_raw>
[[23,29,23,25,2,4,6,7,5,3],[1872,823,1872,1872,954,954,954,954,954,954],[125,54,125,125,62,62,62,62,62,62],[2,2,7,7,10,10,10,10,10,10],[2.5,1,3.344299871,1.586013338,0.8,0.8,0.8,0.8,0.8,0.8]]

> <FP:PLIF>
6 21 29 46 13

>  <PLIF_ligidx>
[29,[2,4,6,7,5,3],23,23,[23,25]]

$$$$
317
  MOE2022           3D

 62 64  0  0  1  0  0  0  0  0999 V2000
    3.0660   17.1930   19.0380 O   0  0  0  0  0  0  0  0  0  0  0  0
    2.1600   17.4140   18.2370 C   0  0  0  0  0  0  0  0  0  0  0  0
    2.3830   18.3010   17.2120 N   0  0  0  0  0  0  0  0  0  0  0  0
    0.8510   16.7570   18.3010 C   0  0  0  0  0  0  0  0  0  0  0  0
   -0.2430   17.2230   17.5510 C   0  0  0  0  0  0  0  0  0  0  0  0
   -1.4640   16.5610   17.5920 C   0  0  0  0  0  0  0  0  0  0  0  0
    0.6750   15.6200   19.1040 C   0  0  0  0  0  0  0  0  0  0  0  0
    3.6940   18.7830   16.7820 C   0  0  1  0  0  0  0  0  0  0  0  0
   -0.5470   14.9570   19.1340 C   0  0  0  0  0  0  0  0  0  0  0  0
   -1.6170   15.4250   18.3790 C   0  0  0  0  0  0  0  0  0  0  0  0
    3.6440   19.2120   15.3140 C   0  0  0  0  0  0  0  0  0  0  0  0
    3.2400   18.3010   14.3250 C   0  0  0  0  0  0  0  0  0  0  0  0
    2.9550   17.0010   14.6450 O   0  0  0  0  0  0  0  0  0  0  0  0
    3.1190   18.6720   12.9910 C   0  0  0  0  0  0  0  0  0  0  0  0
    3.4440   19.9760   12.6280 C   0  0  0  0  0  0  0  0  0  0  0  0
    4.2210   19.8620   17.7490 C   0  0  0  0  0  0  0  0  0  0  0  0
    3.2980   20.4170   11.3270 O   0  0  0  0  0  0  0  0  0  0  0  0
    3.8900   20.8900   13.5820 C   0  0  0  0  0  0  0  0  0  0  0  0
    5.2460   20.8120   17.1080 C   0  0  1  0  0  0  0  0  0  0  0  0
    4.0050   20.5080   14.9200 C   0  0  0  0  0  0  0  0  0  0  0  0
    3.8410   19.8410   10.0950 C   0  0  0  0  0  0  0  0  0  0  0  0
    4.5270   21.5070   15.9390 C   0  0  0  0  0  0  0  0  0  0  0  0
    3.5410   18.3700    9.8790 C   0  0  0  0  0  0  0  0  0  0  0  0
    5.8670   21.8260   18.1050 C   0  0  2  0  0  0  0  0  0  0  0  0
    2.4100   17.9740    9.6100 O   0  0  0  0  0  0  0  0  0  0  0  0
    4.5810   17.5350   10.0170 N   0  0  0  0  0  0  0  0  0  0  0  0
    4.5130   16.0900    9.8550 C   0  0  0  0  0  0  0  0  0  0  0  0
    6.8290   21.1930   19.1420 C   0  0  2  0  0  0  0  0  0  0  0  0
    5.8710   15.5640    9.3920 C   0  0  0  0  0  0  0  0  0  0  0  0
    4.8310   22.5210   18.7830 O   0  0  0  0  0  0  0  0  0  0  0  0
    7.4000   22.2060   19.9460 O   0  0  0  0  0  0  0  0  0  0  0  0
    8.0060   20.4410   18.5040 C   0  0  0  0  0  0  0  0  0  0  0  0
    1.6180   18.4590   16.5420 H   0  0  0  0  0  0  0  0  0  0  0  0
   -0.1520   18.0870   16.9450 H   0  0  0  0  0  0  0  0  0  0  0  0
   -2.2800   16.9200   17.0200 H   0  0  0  0  0  0  0  0  0  0  0  0
    1.4830   15.2510   19.6800 H   0  0  0  0  0  0  0  0  0  0  0  0
    4.3830   17.9560   16.8120 H   0  0  0  0  0  0  0  0  0  0  0  0
   -0.6670   14.0880   19.7240 H   0  0  0  0  0  0  0  0  0  0  0  0
   -2.5460   14.9170   18.4040 H   0  0  0  0  0  0  0  0  0  0  0  0
    2.6330   16.5130   13.8620 H   0  0  0  0  0  0  0  0  0  0  0  0
    2.7680   17.9750   12.2790 H   0  0  0  0  0  0  0  0  0  0  0  0
    3.3710   20.4490   18.0990 H   0  0  0  0  0  0  0  0  0  0  0  0
    4.6630   19.3610   18.6110 H   0  0  0  0  0  0  0  0  0  0  0  0
    4.1380   21.8770   13.2840 H   0  0  0  0  0  0  0  0  0  0  0  0
    6.0480   20.2160   16.6750 H   0  0  0  0  0  0  0  0  0  0  0  0
    3.4350   20.4070    9.2680 H   0  0  0  0  0  0  0  0  0  0  0  0
    4.9070   20.0190   10.0820 H   0  0  0  0  0  0  0  0  0  0  0  0
    3.6880   22.0960   16.3130 H   0  0  0  0  0  0  0  0  0  0  0  0
    5.2270   22.1840   15.4480 H   0  0  0  0  0  0  0  0  0  0  0  0
    6.4420   22.5540   17.5320 H   0  0  0  0  0  0  0  0  0  0  0  0
    5.4940   17.9310   10.1720 H   0  0  0  0  0  0  0  0  0  0  0  0
    4.2470   15.6290   10.8070 H   0  0  0  0  0  0  0  0  0  0  0  0
    3.7590   15.8320    9.1100 H   0  0  0  0  0  0  0  0  0  0  0  0
    6.2780   20.5060   19.7850 H   0  0  0  0  0  0  0  0  0  0  0  0
    6.6330   15.7870   10.1390 H   0  0  0  0  0  0  0  0  0  0  0  0
    5.8140   14.4830    9.2570 H   0  0  0  0  0  0  0  0  0  0  0  0
    6.1440   16.0270    8.4430 H   0  0  0  0  0  0  0  0  0  0  0  0
    4.1990   21.8770   19.1140 H   0  0  0  0  0  0  0  0  0  0  0  0
    8.1080   21.8190   20.4690 H   0  0  0  0  0  0  0  0  0  0  0  0
    7.6570   19.5210   18.0410 H   0  0  0  0  0  0  0  0  0  0  0  0
    8.4890   21.0660   17.7530 H   0  0  0  0  0  0  0  0  0  0  0  0
    8.7360   20.1730   19.2650 H   0  0  0  0  0  0  0  0  0  0  0  0
  1  2  2  0  0  0  0
  2  3  1  0  0  0  0
  2  4  1  0  0  0  0
  3  8  1  0  0  0  0
  3 33  1  0  0  0  0
  4  5  2  0  0  0  0
  4  7  1  0  0  0  0
  5  6  1  0  0  0  0
  5 34  1  0  0  0  0
  6 10  2  0  0  0  0
  6 35  1  0  0  0  0
  7  9  2  0  0  0  0
  7 36  1  0  0  0  0
  8 11  1  0  0  0  0
  8 16  1  0  0  0  0
  8 37  1  0  0  0  0
  9 10  1  0  0  0  0
  9 38  1  0  0  0  0
 10 39  1  0  0  0  0
 11 12  1  0  0  0  0
 11 20  2  0  0  0  0
 12 13  1  0  0  0  0
 12 14  2  0  0  0  0
 13 40  1  0  0  0  0
 14 15  1  0  0  0  0
 14 41  1  0  0  0  0
 15 17  1  0  0  0  0
 15 18  2  0  0  0  0
 16 19  1  0  0  0  0
 16 42  1  0  0  0  0
 16 43  1  0  0  0  0
 17 21  1  0  0  0  0
 18 20  1  0  0  0  0
 18 44  1  0  0  0  0
 19 22  1  0  0  0  0
 19 24  1  0  0  0  0
 19 45  1  0  0  0  0
 20 22  1  0  0  0  0
 21 23  1  0  0  0  0
 21 46  1  0  0  0  0
 21 47  1  0  0  0  0
 22 48  1  0  0  0  0
 22 49  1  0  0  0  0
 23 25  2  0  0  0  0
 23 26  1  0  0  0  0
 24 28  1  0  0  0  0
 24 30  1  0  0  0  0
 24 50  1  0  0  0  0
 26 27  1  0  0  0  0
 26 51  1  0  0  0  0
 27 29  1  0  0  0  0
 27 52  1  0  0  0  0
 27 53  1  0  0  0  0
 28 31  1  0  0  0  0
 28 32  1  0  0  0  0
 28 54  1  0  0  0  0
 29 55  1  0  0  0  0
 29 56  1  0  0  0  0
 29 57  1  0  0  0  0
 30 58  1  0  0  0  0
 31 59  1  0  0  0  0
 32 60  1  0  0  0  0
 32 61  1  0  0  0  0
 32 62  1  0  0  0  0
M  END
> <rseq>
1

> <mseq>
318

> <S>
-6.671607

> <rmsd_refine>
1.712586

> <E_conf>
-38.68594

> <E_score1>
-11.09026

> <E_refine>
-33.53126

> <E_score2>
-6.671607

>  <$File>
outputs/pdb_4j58_cleaned.pdb_2024_06_17__22_47_40_V2_BS398_MIN1_/SDF/sdf_db.sdf

> <Rec_index>
1

>  <PLIF_raw>
[26,2222,148,3,3.1]

> <FP:PLIF>
39 40

>  <PLIF_ligidx>
[26,26]

$$$$
318
  MOE2022           3D

 59 61  0  0  1  0  0  0  0  0999 V2000
    2.1240   16.1310   19.1080 O   0  0  0  0  0  0  0  0  0  0  0  0
    1.2270   16.4130   18.3190 C   0  0  0  0  0  0  0  0  0  0  0  0
    1.5120   17.2400   17.2630 N   0  0  0  0  0  0  0  0  0  0  0  0
   -0.1340   15.8850   18.4300 C   0  0  0  0  0  0  0  0  0  0  0  0
   -1.2280   16.5460   17.8490 C   0  0  0  0  0  0  0  0  0  0  0  0
   -2.5100   16.0190   17.9550 C   0  0  0  0  0  0  0  0  0  0  0  0
   -0.3630   14.6850   19.1160 C   0  0  0  0  0  0  0  0  0  0  0  0
    2.8550   17.6670   16.8810 C   0  0  1  0  0  0  0  0  0  0  0  0
   -1.6460   14.1590   19.2170 C   0  0  0  0  0  0  0  0  0  0  0  0
   -2.7200   14.8250   18.6370 C   0  0  0  0  0  0  0  0  0  0  0  0
    2.9270   17.8870   15.3690 C   0  0  0  0  0  0  0  0  0  0  0  0
    2.5940   16.8480   14.4840 C   0  0  0  0  0  0  0  0  0  0  0  0
    2.2940   15.5940   14.9480 O   0  0  0  0  0  0  0  0  0  0  0  0
    2.5490   17.0440   13.1090 C   0  0  0  0  0  0  0  0  0  0  0  0
    2.8590   18.3020   12.6070 C   0  0  0  0  0  0  0  0  0  0  0  0
    3.2940   18.8790   17.7300 C   0  0  0  0  0  0  0  0  0  0  0  0
    2.7060   18.5530   11.2650 O   0  0  0  0  0  0  0  0  0  0  0  0
    3.2650   19.3330   13.4520 C   0  0  0  0  0  0  0  0  0  0  0  0
    4.3700   19.7400   17.0520 C   0  0  1  0  0  0  0  0  0  0  0  0
    3.3120   19.1250   14.8320 C   0  0  0  0  0  0  0  0  0  0  0  0
    3.7510   18.3090   10.2920 C   0  0  0  0  0  0  0  0  0  0  0  0
    3.7670   20.2560   15.7360 C   0  0  0  0  0  0  0  0  0  0  0  0
    3.9440   16.8520    9.9200 C   0  0  0  0  0  0  0  0  0  0  0  0
    4.9270   20.8830   17.9380 C   0  0  2  0  0  0  0  0  0  0  0  0
    3.0280   16.0340    9.9710 O   0  0  0  0  0  0  0  0  0  0  0  0
    5.1580   16.5340    9.4500 N   0  0  0  0  0  0  0  0  0  0  0  0
    5.5160   15.2270    8.9170 C   0  0  0  0  0  0  0  0  0  0  0  0
    5.8110   20.4060   19.0840 C   0  0  0  0  0  0  0  0  0  0  0  0
    3.8700   21.7460   18.4240 O   0  0  0  0  0  0  0  0  0  0  0  0
    6.1540   14.3730   10.0090 C   0  0  0  0  0  0  0  0  0  0  0  0
    5.3560   20.0180   20.1560 O   0  0  0  0  0  0  0  0  0  0  0  0
    7.1290   20.3910   18.8730 N   0  0  0  0  0  0  0  0  0  0  0  0
    0.7530   17.4780   16.6070 H   0  0  0  0  0  0  0  0  0  0  0  0
   -1.0890   17.4580   17.3290 H   0  0  0  0  0  0  0  0  0  0  0  0
   -3.3290   16.5270   17.5150 H   0  0  0  0  0  0  0  0  0  0  0  0
    0.4510   14.1670   19.5500 H   0  0  0  0  0  0  0  0  0  0  0  0
    3.5320   16.8540   17.0920 H   0  0  0  0  0  0  0  0  0  0  0  0
   -1.8080   13.2460   19.7290 H   0  0  0  0  0  0  0  0  0  0  0  0
   -3.6970   14.4230   18.7140 H   0  0  0  0  0  0  0  0  0  0  0  0
    2.2530   15.5770   15.9260 H   0  0  0  0  0  0  0  0  0  0  0  0
    2.2620   16.2570   12.4620 H   0  0  0  0  0  0  0  0  0  0  0  0
    2.4200   19.5040   17.9200 H   0  0  0  0  0  0  0  0  0  0  0  0
    3.6580   18.5100   18.6890 H   0  0  0  0  0  0  0  0  0  0  0  0
    3.5210   20.2770   13.0430 H   0  0  0  0  0  0  0  0  0  0  0  0
    5.2220   19.1110   16.8060 H   0  0  0  0  0  0  0  0  0  0  0  0
    3.5130   18.8690    9.3990 H   0  0  0  0  0  0  0  0  0  0  0  0
    4.6730   18.7390   10.6490 H   0  0  0  0  0  0  0  0  0  0  0  0
    2.9110   20.8990   15.9480 H   0  0  0  0  0  0  0  0  0  0  0  0
    4.5170   20.8500   15.2130 H   0  0  0  0  0  0  0  0  0  0  0  0
    5.5400   21.5060   17.3000 H   0  0  0  0  0  0  0  0  0  0  0  0
    5.8590   17.2580    9.3830 H   0  0  0  0  0  0  0  0  0  0  0  0
    4.6340   14.7190    8.5250 H   0  0  0  0  0  0  0  0  0  0  0  0
    6.2290   15.3640    8.1050 H   0  0  0  0  0  0  0  0  0  0  0  0
    3.2950   21.2500   19.0330 H   0  0  0  0  0  0  0  0  0  0  0  0
    5.4530   14.2370   10.8340 H   0  0  0  0  0  0  0  0  0  0  0  0
    6.4170   13.3970    9.6010 H   0  0  0  0  0  0  0  0  0  0  0  0
    7.0550   14.8620   10.3710 H   0  0  0  0  0  0  0  0  0  0  0  0
    7.5100   20.6980   17.9920 H   0  0  0  0  0  0  0  0  0  0  0  0
    7.7440   20.0800   19.6110 H   0  0  0  0  0  0  0  0  0  0  0  0
  1  2  2  0  0  0  0
  2  3  1  0  0  0  0
  2  4  1  0  0  0  0
  3  8  1  0  0  0  0
  3 33  1  0  0  0  0
  4  5  2  0  0  0  0
  4  7  1  0  0  0  0
  5  6  1  0  0  0  0
  5 34  1  0  0  0  0
  6 10  2  0  0  0  0
  6 35  1  0  0  0  0
  7  9  2  0  0  0  0
  7 36  1  0  0  0  0
  8 11  1  0  0  0  0
  8 16  1  0  0  0  0
  8 37  1  0  0  0  0
  9 10  1  0  0  0  0
  9 38  1  0  0  0  0
 10 39  1  0  0  0  0
 11 12  1  0  0  0  0
 11 20  2  0  0  0  0
 12 13  1  0  0  0  0
 12 14  2  0  0  0  0
 13 40  1  0  0  0  0
 14 15  1  0  0  0  0
 14 41  1  0  0  0  0
 15 17  1  0  0  0  0
 15 18  2  0  0  0  0
 16 19  1  0  0  0  0
 16 42  1  0  0  0  0
 16 43  1  0  0  0  0
 17 21  1  0  0  0  0
 18 20  1  0  0  0  0
 18 44  1  0  0  0  0
 19 22  1  0  0  0  0
 19 24  1  0  0  0  0
 19 45  1  0  0  0  0
 20 22  1  0  0  0  0
 21 23  1  0  0  0  0
 21 46  1  0  0  0  0
 21 47  1  0  0  0  0
 22 48  1  0  0  0  0
 22 49  1  0  0  0  0
 23 25  2  0  0  0  0
 23 26  1  0  0  0  0
 24 28  1  0  0  0  0
 24 29  1  0  0  0  0
 24 50  1  0  0  0  0
 26 27  1  0  0  0  0
 26 51  1  0  0  0  0
 27 30  1  0  0  0  0
 27 52  1  0  0  0  0
 27 53  1  0  0  0  0
 28 31  2  0  0  0  0
 28 32  1  0  0  0  0
 29 54  1  0  0  0  0
 30 55  1  0  0  0  0
 30 56  1  0  0  0  0
 30 57  1  0  0  0  0
 32 58  1  0  0  0  0
 32 59  1  0  0  0  0
M  END
> <rseq>
1

> <mseq>
319

> <S>
-6.534882

> <rmsd_refine>
1.667915

> <E_conf>
-46.87939

> <E_score1>
-11.02937

> <E_refine>
-40.3469

> <E_score2>
-6.534882

>  <$File>
outputs/pdb_4j58_cleaned.pdb_2024_06_17__22_47_40_V2_BS398_MIN1_/SDF/sdf_db.sdf

> <Rec_index>
1

>  <PLIF_raw>
[[26,29,31,32,32,32,32,32,32],[2222,1504,1499,1651,1655,1659,1657,1653,1650],[148,101,101,112,112,112,112,112,112],[3,3,4,10,10,10,10,10,10],[2,2,3.9,1,1,1,1,1,1]]

> <FP:PLIF>
8 10 11 12 15 47 39 40

>  <PLIF_ligidx>
[29,29,31,31,[32,32,32,32,32,32],[32,32,32,32,32,32],26,26]

$$$$
319
  MOE2022           3D

 51 54  0  0  1  0  0  0  0  0999 V2000
    3.3030   17.2670   19.4870 O   0  0  0  0  0  0  0  0  0  0  0  0
    2.2940   17.4260   18.8050 C   0  0  0  0  0  0  0  0  0  0  0  0
    2.3080   18.3210   17.7640 N   0  0  0  0  0  0  0  0  0  0  0  0
    1.0510   16.7010   19.0470 C   0  0  0  0  0  0  0  0  0  0  0  0
    0.2900   16.2140   17.9760 C   0  0  0  0  0  0  0  0  0  0  0  0
   -0.9000   15.5340   18.2070 C   0  0  0  0  0  0  0  0  0  0  0  0
    0.6000   16.4800   20.3540 C   0  0  0  0  0  0  0  0  0  0  0  0
    3.5240   18.8160   17.0990 C   0  0  1  0  0  0  0  0  0  0  0  0
   -0.6050   15.8230   20.5800 C   0  0  0  0  0  0  0  0  0  0  0  0
   -1.3510   15.3420   19.5090 C   0  0  0  0  0  0  0  0  0  0  0  0
    3.3580   18.6960   15.5800 C   0  0  0  0  0  0  0  0  0  0  0  0
    3.3200   17.4310   14.9700 C   0  0  0  0  0  0  0  0  0  0  0  0
    3.4700   16.2920   15.7190 O   0  0  0  0  0  0  0  0  0  0  0  0
    3.1200   17.2810   13.5980 C   0  0  0  0  0  0  0  0  0  0  0  0
    2.9490   18.4230   12.8210 C   0  0  0  0  0  0  0  0  0  0  0  0
    3.9970   20.1760   17.6110 C   0  0  0  0  0  0  0  0  0  0  0  0
    2.6910   18.3270   11.4750 O   0  0  0  0  0  0  0  0  0  0  0  0
    3.1970   19.8230   14.7650 C   0  0  0  0  0  0  0  0  0  0  0  0
    2.9930   19.6910   13.3940 C   0  0  0  0  0  0  0  0  0  0  0  0
    3.6840   17.8800   10.5190 C   0  0  0  0  0  0  0  0  0  0  0  0
    5.2000   20.2790   17.9440 O   0  0  0  0  0  0  0  0  0  0  0  0
    3.1780   21.1230   17.6550 O   0  5  0  0  0  0  0  0  0  0  0  0
    3.7950   16.3740   10.4030 C   0  0  0  0  0  0  0  0  0  0  0  0
    4.9860   15.8430   10.3410 N   0  0  0  0  0  0  0  0  0  0  0  0
    5.1320   14.4800   10.2120 C   0  0  0  0  0  0  0  0  0  0  0  0
    6.4250   13.9150   10.1440 C   0  0  0  0  0  0  0  0  0  0  0  0
    4.0040   13.6330   10.1440 C   0  0  0  0  0  0  0  0  0  0  0  0
    2.6230   15.5800   10.3400 C   0  0  0  0  0  0  0  0  0  0  0  0
    4.1940   12.2370   10.0030 C   0  0  0  0  0  0  0  0  0  0  0  0
    5.4640   11.7090    9.9470 C   0  0  0  0  0  0  0  0  0  0  0  0
    6.5880   12.5540   10.0230 C   0  0  0  0  0  0  0  0  0  0  0  0
    2.7200   14.2210   10.2160 C   0  0  0  0  0  0  0  0  0  0  0  0
    1.4190   18.5430   17.2940 H   0  0  0  0  0  0  0  0  0  0  0  0
    0.6240   16.3560   16.9800 H   0  0  0  0  0  0  0  0  0  0  0  0
   -1.4650   15.1640   17.3910 H   0  0  0  0  0  0  0  0  0  0  0  0
    1.1700   16.8290   21.1750 H   0  0  0  0  0  0  0  0  0  0  0  0
    4.3240   18.1410   17.3440 H   0  0  0  0  0  0  0  0  0  0  0  0
   -0.9630   15.6990   21.5660 H   0  0  0  0  0  0  0  0  0  0  0  0
   -2.2650   14.8340   19.6830 H   0  0  0  0  0  0  0  0  0  0  0  0
    3.3500   15.4970   15.1640 H   0  0  0  0  0  0  0  0  0  0  0  0
    3.0850   16.3180   13.1590 H   0  0  0  0  0  0  0  0  0  0  0  0
    3.2150   20.7960   15.1820 H   0  0  0  0  0  0  0  0  0  0  0  0
    2.8610   20.5520   12.7910 H   0  0  0  0  0  0  0  0  0  0  0  0
    3.4150   18.2880    9.5540 H   0  0  0  0  0  0  0  0  0  0  0  0
    4.6370   18.3230   10.7680 H   0  0  0  0  0  0  0  0  0  0  0  0
    7.2680   14.5500   10.1940 H   0  0  0  0  0  0  0  0  0  0  0  0
    1.6730   16.0460   10.3900 H   0  0  0  0  0  0  0  0  0  0  0  0
    3.3490   11.6010    9.9420 H   0  0  0  0  0  0  0  0  0  0  0  0
    5.6060   10.6630    9.8480 H   0  0  0  0  0  0  0  0  0  0  0  0
    7.5600   12.1320    9.9870 H   0  0  0  0  0  0  0  0  0  0  0  0
    1.8530   13.6140   10.1690 H   0  0  0  0  0  0  0  0  0  0  0  0
  1  2  2  0  0  0  0
  2  3  1  0  0  0  0
  2  4  1  0  0  0  0
  3  8  1  0  0  0  0
  3 33  1  0  0  0  0
  4  5  2  0  0  0  0
  4  7  1  0  0  0  0
  5  6  1  0  0  0  0
  5 34  1  0  0  0  0
  6 10  2  0  0  0  0
  6 35  1  0  0  0  0
  7  9  2  0  0  0  0
  7 36  1  0  0  0  0
  8 11  1  0  0  0  0
  8 16  1  0  0  0  0
  8 37  1  0  0  0  0
  9 10  1  0  0  0  0
  9 38  1  0  0  0  0
 10 39  1  0  0  0  0
 11 12  1  0  0  0  0
 11 18  2  0  0  0  0
 12 13  1  0  0  0  0
 12 14  2  0  0  0  0
 13 40  1  0  0  0  0
 14 15  1  0  0  0  0
 14 41  1  0  0  0  0
 15 17  1  0  0  0  0
 15 19  2  0  0  0  0
 16 21  2  0  0  0  0
 16 22  1  0  0  0  0
 17 20  1  0  0  0  0
 18 19  1  0  0  0  0
 18 42  1  0  0  0  0
 19 43  1  0  0  0  0
 20 23  1  0  0  0  0
 20 44  1  0  0  0  0
 20 45  1  0  0  0  0
 23 24  2  0  0  0  0
 23 28  1  0  0  0  0
 24 25  1  0  0  0  0
 25 26  2  0  0  0  0
 25 27  1  0  0  0  0
 26 31  1  0  0  0  0
 26 46  1  0  0  0  0
 27 29  2  0  0  0  0
 27 32  1  0  0  0  0
 28 32  2  0  0  0  0
 28 47  1  0  0  0  0
 29 30  1  0  0  0  0
 29 48  1  0  0  0  0
 30 31  2  0  0  0  0
 30 49  1  0  0  0  0
 31 50  1  0  0  0  0
 32 51  1  0  0  0  0
M  CHG  1  22  -1
M  END
> <rseq>
1

> <mseq>
320

> <S>
-6.381063

> <rmsd_refine>
1.341726

> <E_conf>
-5.736324

> <E_score1>
-11.9236

> <E_refine>
-35.31564

> <E_score2>
-6.381063

>  <$File>
outputs/pdb_4j58_cleaned.pdb_2024_06_17__22_47_40_V2_BS398_MIN1_/SDF/sdf_db.sdf

> <Rec_index>
1

>  <PLIF_raw>
[[24,4,7,9,10,6,5],[823,1519,1519,1519,1519,1519,1519],[54,102,102,102,102,102,102],[2,10,10,10,10,10,10],[1.2,0.7,0.7,0.7,0.7,0.7,0.7]]

> <FP:PLIF>
6 22

>  <PLIF_ligidx>
[24,[4,7,9,10,6,5]]

$$$$
320
  MOE2022           3D

 59 62  0  0  1  0  0  0  0  0999 V2000
    2.4340   16.3670   20.7390 C   0  0  0  0  0  0  0  0  0  0  0  0
    1.1250   15.9160   20.8260 C   0  0  0  0  0  0  0  0  0  0  0  0
    2.8700   17.0240   19.5940 C   0  0  0  0  0  0  0  0  0  0  0  0
    0.2530   16.1080   19.7610 C   0  0  0  0  0  0  0  0  0  0  0  0
    0.6920   16.7560   18.6110 C   0  0  0  0  0  0  0  0  0  0  0  0
    2.0030   17.2230   18.5170 C   0  0  0  0  0  0  0  0  0  0  0  0
    2.4570   17.8940   17.2280 C   0  0  1  0  0  0  0  0  0  0  0  0
    3.5640   18.8460   17.4290 N   0  0  0  0  0  0  0  0  0  0  0  0
    2.8040   16.8650   16.1600 C   0  0  0  0  0  0  0  0  0  0  0  0
    3.8940   19.8290   16.5240 C   0  0  0  0  0  0  0  0  0  0  0  0
    2.3200   17.0920   14.9320 N   0  0  0  0  0  0  0  0  0  0  0  0
    3.0800   20.0740   15.6350 O   0  0  0  0  0  0  0  0  0  0  0  0
    5.1970   20.5060   16.6490 C   0  0  0  0  0  0  0  0  0  0  0  0
    3.5540   15.9180   16.3930 O   0  0  0  0  0  0  0  0  0  0  0  0
    2.6380   16.2700   13.7730 C   0  0  1  0  0  0  0  0  0  0  0  0
    1.5490   15.2580   13.4510 C   0  0  0  0  0  0  0  0  0  0  0  0
    2.7940   17.0640   12.4780 C   0  0  0  0  0  0  0  0  0  0  0  0
    6.0490   20.2320   17.7340 C   0  0  0  0  0  0  0  0  0  0  0  0
    1.4430   15.2770   11.9210 C   0  0  0  0  0  0  0  0  0  0  0  0
    5.6630   21.4240   15.6820 C   0  0  0  0  0  0  0  0  0  0  0  0
    2.5190   16.1360   11.3780 N   0  0  0  0  0  0  0  0  0  0  0  0
    7.3060   20.8210   17.8360 C   0  0  0  0  0  0  0  0  0  0  0  0
    4.9180   21.7530   14.5890 O   0  0  0  0  0  0  0  0  0  0  0  0
    3.6970   15.5350   10.8730 C   0  0  0  0  0  0  0  0  0  0  0  0
    7.7400   21.7120   16.8550 C   0  0  0  0  0  0  0  0  0  0  0  0
    6.9170   22.0200   15.7820 C   0  0  0  0  0  0  0  0  0  0  0  0
    8.2130   20.4780   18.9950 C   0  0  0  0  0  0  0  0  0  0  0  0
    4.5250   16.3020   10.0440 C   0  0  0  0  0  0  0  0  0  0  0  0
    4.0630   14.2190   11.1940 C   0  0  0  0  0  0  0  0  0  0  0  0
    5.2490   13.6910   10.7000 C   0  0  0  0  0  0  0  0  0  0  0  0
    6.0710   14.4570    9.8810 C   0  0  0  0  0  0  0  0  0  0  0  0
    5.7040   15.7580    9.5480 C   0  0  0  0  0  0  0  0  0  0  0  0
    3.1010   16.2090   21.5460 H   0  0  0  0  0  0  0  0  0  0  0  0
    0.7970   15.4300   21.7030 H   0  0  0  0  0  0  0  0  0  0  0  0
    3.8680   17.3680   19.5510 H   0  0  0  0  0  0  0  0  0  0  0  0
   -0.7460   15.7610   19.8240 H   0  0  0  0  0  0  0  0  0  0  0  0
    0.0220   16.8900   17.8010 H   0  0  0  0  0  0  0  0  0  0  0  0
    1.6120   18.4680   16.8700 H   0  0  0  0  0  0  0  0  0  0  0  0
    4.2490   18.6020   18.1570 H   0  0  0  0  0  0  0  0  0  0  0  0
    1.7380   17.9030   14.7790 H   0  0  0  0  0  0  0  0  0  0  0  0
    3.5720   15.7290   13.9250 H   0  0  0  0  0  0  0  0  0  0  0  0
    1.8380   14.2700   13.8110 H   0  0  0  0  0  0  0  0  0  0  0  0
    0.5930   15.5500   13.8880 H   0  0  0  0  0  0  0  0  0  0  0  0
    2.0700   17.8680   12.4490 H   0  0  0  0  0  0  0  0  0  0  0  0
    3.7700   17.5230   12.4080 H   0  0  0  0  0  0  0  0  0  0  0  0
    5.7460   19.5580   18.4920 H   0  0  0  0  0  0  0  0  0  0  0  0
    1.4430   14.2830   11.4970 H   0  0  0  0  0  0  0  0  0  0  0  0
    0.4900   15.7050   11.6400 H   0  0  0  0  0  0  0  0  0  0  0  0
    4.0370   21.3250   14.6440 H   0  0  0  0  0  0  0  0  0  0  0  0
    8.6990   22.1580   16.9280 H   0  0  0  0  0  0  0  0  0  0  0  0
    7.2440   22.7030   15.0400 H   0  0  0  0  0  0  0  0  0  0  0  0
    8.8300   19.6150   18.7450 H   0  0  0  0  0  0  0  0  0  0  0  0
    8.8730   21.3130   19.2330 H   0  0  0  0  0  0  0  0  0  0  0  0
    7.6300   20.2410   19.8850 H   0  0  0  0  0  0  0  0  0  0  0  0
    4.2480   17.2930    9.7910 H   0  0  0  0  0  0  0  0  0  0  0  0
    3.4540   13.6230   11.8200 H   0  0  0  0  0  0  0  0  0  0  0  0
    5.5320   12.7010   10.9500 H   0  0  0  0  0  0  0  0  0  0  0  0
    6.9710   14.0470    9.5090 H   0  0  0  0  0  0  0  0  0  0  0  0
    6.3250   16.3300    8.9090 H   0  0  0  0  0  0  0  0  0  0  0  0
  1  2  2  0  0  0  0
  1  3  1  0  0  0  0
  1 33  1  0  0  0  0
  2  4  1  0  0  0  0
  2 34  1  0  0  0  0
  3  6  2  0  0  0  0
  3 35  1  0  0  0  0
  4  5  2  0  0  0  0
  4 36  1  0  0  0  0
  5  6  1  0  0  0  0
  5 37  1  0  0  0  0
  6  7  1  0  0  0  0
  7  8  1  0  0  0  0
  7  9  1  0  0  0  0
  7 38  1  0  0  0  0
  8 10  1  0  0  0  0
  8 39  1  0  0  0  0
  9 11  1  0  0  0  0
  9 14  2  0  0  0  0
 10 12  2  0  0  0  0
 10 13  1  0  0  0  0
 11 15  1  0  0  0  0
 11 40  1  0  0  0  0
 13 18  1  0  0  0  0
 13 20  2  0  0  0  0
 15 16  1  0  0  0  0
 15 17  1  0  0  0  0
 15 41  1  0  0  0  0
 16 19  1  0  0  0  0
 16 42  1  0  0  0  0
 16 43  1  0  0  0  0
 17 21  1  0  0  0  0
 17 44  1  0  0  0  0
 17 45  1  0  0  0  0
 18 22  2  0  0  0  0
 18 46  1  0  0  0  0
 19 21  1  0  0  0  0
 19 47  1  0  0  0  0
 19 48  1  0  0  0  0
 20 23  1  0  0  0  0
 20 26  1  0  0  0  0
 21 24  1  0  0  0  0
 22 25  1  0  0  0  0
 22 27  1  0  0  0  0
 23 49  1  0  0  0  0
 24 28  2  0  0  0  0
 24 29  1  0  0  0  0
 25 26  2  0  0  0  0
 25 50  1  0  0  0  0
 26 51  1  0  0  0  0
 27 52  1  0  0  0  0
 27 53  1  0  0  0  0
 27 54  1  0  0  0  0
 28 32  1  0  0  0  0
 28 55  1  0  0  0  0
 29 30  2  0  0  0  0
 29 56  1  0  0  0  0
 30 31  1  0  0  0  0
 30 57  1  0  0  0  0
 31 32  2  0  0  0  0
 31 58  1  0  0  0  0
 32 59  1  0  0  0  0
M  END
> <rseq>
1

> <mseq>
321

> <S>
-7.403323

> <rmsd_refine>
1.603597

> <E_conf>
13.50063

> <E_score1>
-9.607533

> <E_refine>
-41.54099

> <E_score2>
-7.403323

>  <$File>
outputs/pdb_4j58_cleaned.pdb_2024_06_17__22_47_40_V2_BS398_MIN1_/SDF/sdf_db.sdf

> <Rec_index>
1

>  <PLIF_raw>
[[14,24,29,30,31,32,28],[954,820,820,820,820,820,820],[62,54,54,54,54,54,54],[2,10,10,10,10,10,10],[1.7,0.5,0.5,0.5,0.5,0.5,0.5]]

> <FP:PLIF>
2 20 23

>  <PLIF_ligidx>
[[24,29,30,31,32,28],14,14]

$$$$
321
  MOE2022           3D

 64 66  0  0  1  0  0  0  0  0999 V2000
    2.7090   16.2220   20.9790 C   0  0  0  0  0  0  0  0  0  0  0  0
    1.5160   15.6980   21.4530 C   0  0  0  0  0  0  0  0  0  0  0  0
    2.7440   16.9020   19.7700 C   0  0  0  0  0  0  0  0  0  0  0  0
    0.3540   15.8360   20.7010 C   0  0  0  0  0  0  0  0  0  0  0  0
    0.3930   16.5010   19.4800 C   0  0  0  0  0  0  0  0  0  0  0  0
    1.5820   17.0570   19.0090 C   0  0  0  0  0  0  0  0  0  0  0  0
    1.5780   17.7930   17.6750 C   0  0  1  0  0  0  0  0  0  0  0  0
    2.7810   18.6230   17.5090 N   0  0  0  0  0  0  0  0  0  0  0  0
    1.3330   16.7980   16.5220 C   0  0  0  0  0  0  0  0  0  0  0  0
    2.7390   19.9640   17.4790 C   0  0  0  0  0  0  0  0  0  0  0  0
    1.6620   17.2230   15.1290 N   0  0  0  0  0  0  0  0  0  0  0  0
    0.9890   18.2620   14.4970 C   0  0  0  0  0  0  0  0  0  0  0  0
    0.0970   18.9480   15.2270 O   0  0  0  0  0  0  0  0  0  0  0  0
    2.6080   16.4710   14.4010 C   0  0  0  0  0  0  0  0  0  0  0  0
    3.9930   20.7180   17.9620 C   0  0  1  0  0  0  0  0  0  0  0  0
    3.3480   15.7010   15.0370 O   0  0  0  0  0  0  0  0  0  0  0  0
    2.6790   16.6620   12.9730 C   0  0  0  0  0  0  0  0  0  0  0  0
    3.3690   15.6840   12.1650 C   0  0  0  0  0  0  0  0  0  0  0  0
    3.3890   14.4880   12.4210 O   0  0  0  0  0  0  0  0  0  0  0  0
    1.7130   20.5920   17.2200 O   0  0  0  0  0  0  0  0  0  0  0  0
    1.2060   18.5620   13.1710 C   0  0  0  0  0  0  0  0  0  0  0  0
    4.0280   16.1050   11.0510 O   0  0  0  0  0  0  0  0  0  0  0  0
    5.2570   20.4150   17.1370 C   0  0  0  0  0  0  0  0  0  0  0  0
    2.0480   17.7470   12.4010 C   0  0  0  0  0  0  0  0  0  0  0  0
    3.7590   22.1820   18.0190 N   0  3  0  0  0  0  0  0  0  0  0  0
    4.8960   22.8870   18.6400 C   0  0  0  0  0  0  0  0  0  0  0  0
    4.6970   15.1670   10.1570 C   0  0  0  0  0  0  0  0  0  0  0  0
    5.7370   15.8490    9.2740 C   0  0  0  0  0  0  0  0  0  0  0  0
    6.4990   21.1250   17.7340 C   0  0  0  0  0  0  0  0  0  0  0  0
    6.8790   20.5150   19.1030 C   0  0  0  0  0  0  0  0  0  0  0  0
    6.1970   22.6340   17.8710 C   0  0  0  0  0  0  0  0  0  0  0  0
    7.7110   20.9550   16.7990 C   0  0  0  0  0  0  0  0  0  0  0  0
    3.5960   16.1000   21.5400 H   0  0  0  0  0  0  0  0  0  0  0  0
    1.5050   15.1970   22.3840 H   0  0  0  0  0  0  0  0  0  0  0  0
    3.6670   17.2980   19.4410 H   0  0  0  0  0  0  0  0  0  0  0  0
   -0.5620   15.4380   21.0520 H   0  0  0  0  0  0  0  0  0  0  0  0
   -0.4950   16.5840   18.9070 H   0  0  0  0  0  0  0  0  0  0  0  0
    0.7180   18.4480   17.6990 H   0  0  0  0  0  0  0  0  0  0  0  0
    3.6630   18.1680   17.6800 H   0  0  0  0  0  0  0  0  0  0  0  0
    1.8580   15.8910   16.7780 H   0  0  0  0  0  0  0  0  0  0  0  0
    0.2970   16.4900   16.5550 H   0  0  0  0  0  0  0  0  0  0  0  0
    0.0570   18.6260   16.1470 H   0  0  0  0  0  0  0  0  0  0  0  0
    4.1780   20.3760   18.9800 H   0  0  0  0  0  0  0  0  0  0  0  0
    0.7090   19.3830   12.7210 H   0  0  0  0  0  0  0  0  0  0  0  0
    5.4270   19.3400   17.1200 H   0  0  0  0  0  0  0  0  0  0  0  0
    5.0960   20.7530   16.1120 H   0  0  0  0  0  0  0  0  0  0  0  0
    2.1590   17.9480   11.3650 H   0  0  0  0  0  0  0  0  0  0  0  0
    3.6120   22.5230   17.0790 H   0  0  0  0  0  0  0  0  0  0  0  0
    2.9130   22.3490   18.5480 H   0  0  0  0  0  0  0  0  0  0  0  0
    4.6940   23.9590   18.6580 H   0  0  0  0  0  0  0  0  0  0  0  0
    5.0180   22.5350   19.6630 H   0  0  0  0  0  0  0  0  0  0  0  0
    5.2010   14.3980   10.7450 H   0  0  0  0  0  0  0  0  0  0  0  0
    3.9440   14.6930    9.5260 H   0  0  0  0  0  0  0  0  0  0  0  0
    6.5390   16.2390    9.8980 H   0  0  0  0  0  0  0  0  0  0  0  0
    6.1510   15.1230    8.5750 H   0  0  0  0  0  0  0  0  0  0  0  0
    5.2730   16.6630    8.7160 H   0  0  0  0  0  0  0  0  0  0  0  0
    6.0710   20.6190   19.8250 H   0  0  0  0  0  0  0  0  0  0  0  0
    7.1070   19.4540   18.9890 H   0  0  0  0  0  0  0  0  0  0  0  0
    7.7630   21.0150   19.5020 H   0  0  0  0  0  0  0  0  0  0  0  0
    6.1000   23.0780   16.8780 H   0  0  0  0  0  0  0  0  0  0  0  0
    7.0190   23.1330   18.3860 H   0  0  0  0  0  0  0  0  0  0  0  0
    7.9670   19.9000   16.7020 H   0  0  0  0  0  0  0  0  0  0  0  0
    7.4900   21.3600   15.8120 H   0  0  0  0  0  0  0  0  0  0  0  0
    8.5760   21.4820   17.2050 H   0  0  0  0  0  0  0  0  0  0  0  0
  1  2  2  0  0  0  0
  1  3  1  0  0  0  0
  1 33  1  0  0  0  0
  2  4  1  0  0  0  0
  2 34  1  0  0  0  0
  3  6  2  0  0  0  0
  3 35  1  0  0  0  0
  4  5  2  0  0  0  0
  4 36  1  0  0  0  0
  5  6  1  0  0  0  0
  5 37  1  0  0  0  0
  6  7  1  0  0  0  0
  7  8  1  0  0  0  0
  7  9  1  0  0  0  0
  7 38  1  0  0  0  0
  8 10  1  0  0  0  0
  8 39  1  0  0  0  0
  9 11  1  0  0  0  0
  9 40  1  0  0  0  0
  9 41  1  0  0  0  0
 10 15  1  0  0  0  0
 10 20  2  0  0  0  0
 11 12  1  0  0  0  0
 11 14  1  0  0  0  0
 12 13  1  0  0  0  0
 12 21  2  0  0  0  0
 13 42  1  0  0  0  0
 14 16  2  0  0  0  0
 14 17  1  0  0  0  0
 15 23  1  0  0  0  0
 15 25  1  0  0  0  0
 15 43  1  0  0  0  0
 17 18  1  0  0  0  0
 17 24  2  0  0  0  0
 18 19  2  0  0  0  0
 18 22  1  0  0  0  0
 21 24  1  0  0  0  0
 21 44  1  0  0  0  0
 22 27  1  0  0  0  0
 23 29  1  0  0  0  0
 23 45  1  0  0  0  0
 23 46  1  0  0  0  0
 24 47  1  0  0  0  0
 25 26  1  0  0  0  0
 25 48  1  0  0  0  0
 25 49  1  0  0  0  0
 26 31  1  0  0  0  0
 26 50  1  0  0  0  0
 26 51  1  0  0  0  0
 27 28  1  0  0  0  0
 27 52  1  0  0  0  0
 27 53  1  0  0  0  0
 28 54  1  0  0  0  0
 28 55  1  0  0  0  0
 28 56  1  0  0  0  0
 29 30  1  0  0  0  0
 29 31  1  0  0  0  0
 29 32  1  0  0  0  0
 30 57  1  0  0  0  0
 30 58  1  0  0  0  0
 30 59  1  0  0  0  0
 31 60  1  0  0  0  0
 31 61  1  0  0  0  0
 32 62  1  0  0  0  0
 32 63  1  0  0  0  0
 32 64  1  0  0  0  0
M  CHG  1  25   1
M  END
> <rseq>
1

> <mseq>
322

> <S>
-7.251105

> <rmsd_refine>
0.9798334

> <E_conf>
-73.68427

> <E_score1>
-9.599218

> <E_refine>
-33.46278

> <E_score2>
-7.251105

>  <$File>
outputs/pdb_4j58_cleaned.pdb_2024_06_17__22_47_40_V2_BS398_MIN1_/SDF/sdf_db.sdf

> <Rec_index>
1

>  <PLIF_raw>
[[],[],[],[],[]]

>  <PLIF_ligidx>
[]

$$$$
322
  MOE2022           3D

 64 66  0  0  1  0  0  0  0  0999 V2000
    2.6990   16.1910   21.0690 C   0  0  0  0  0  0  0  0  0  0  0  0
    1.4930   15.7370   21.5770 C   0  0  0  0  0  0  0  0  0  0  0  0
    2.7460   16.8250   19.8360 C   0  0  0  0  0  0  0  0  0  0  0  0
    0.3290   15.8890   20.8310 C   0  0  0  0  0  0  0  0  0  0  0  0
    0.3790   16.5000   19.5840 C   0  0  0  0  0  0  0  0  0  0  0  0
    1.5820   16.9980   19.0830 C   0  0  0  0  0  0  0  0  0  0  0  0
    1.5950   17.6800   17.7230 C   0  0  1  0  0  0  0  0  0  0  0  0
    2.7830   18.5330   17.5710 N   0  0  0  0  0  0  0  0  0  0  0  0
    1.4210   16.6160   16.6210 C   0  0  0  0  0  0  0  0  0  0  0  0
    2.7200   19.8110   17.1750 C   0  0  0  0  0  0  0  0  0  0  0  0
    1.5790   17.0210   15.1950 N   0  0  0  0  0  0  0  0  0  0  0  0
    0.7020   17.9070   14.5790 C   0  0  0  0  0  0  0  0  0  0  0  0
   -0.2690   18.4340   15.3400 O   0  0  0  0  0  0  0  0  0  0  0  0
    2.5760   16.3900   14.4220 C   0  0  0  0  0  0  0  0  0  0  0  0
    3.8440   20.7560   17.6480 C   0  0  1  0  0  0  0  0  0  0  0  0
    3.4460   15.7380   15.0240 O   0  0  0  0  0  0  0  0  0  0  0  0
    2.5400   16.5570   12.9900 C   0  0  0  0  0  0  0  0  0  0  0  0
    3.3090   15.6610   12.1590 C   0  0  0  0  0  0  0  0  0  0  0  0
    3.4680   14.4770   12.4180 O   0  0  0  0  0  0  0  0  0  0  0  0
    1.7630   20.2690   16.5540 O   0  0  0  0  0  0  0  0  0  0  0  0
    0.8030   18.2100   13.2400 C   0  0  0  0  0  0  0  0  0  0  0  0
    3.8750   16.1410   11.0180 O   0  0  0  0  0  0  0  0  0  0  0  0
    5.2060   20.4680   16.9760 C   0  0  0  0  0  0  0  0  0  0  0  0
    1.7260   17.5220   12.4380 C   0  0  0  0  0  0  0  0  0  0  0  0
    3.3830   22.1670   17.5370 N   0  3  0  0  0  0  0  0  0  0  0  0
    4.5500   15.2650   10.0630 C   0  0  0  0  0  0  0  0  0  0  0  0
    5.6010   16.0000    9.2400 C   0  0  0  0  0  0  0  0  0  0  0  0
    4.3990   23.2300   17.4140 C   0  0  0  0  0  0  0  0  0  0  0  0
    5.4460   23.1680   18.5240 C   0  0  0  0  0  0  0  0  0  0  0  0
    6.6480   22.3110   18.1050 C   0  0  0  0  0  0  0  0  0  0  0  0
    6.3770   20.8060   17.9270 C   0  0  2  0  0  0  0  0  0  0  0  0
    7.6250   20.1560   17.4840 N   0  3  0  0  0  0  0  0  0  0  0  0
    3.5870   16.0560   21.6230 H   0  0  0  0  0  0  0  0  0  0  0  0
    1.4760   15.2800   22.5300 H   0  0  0  0  0  0  0  0  0  0  0  0
    3.6800   17.1670   19.4820 H   0  0  0  0  0  0  0  0  0  0  0  0
   -0.5990   15.5410   21.2050 H   0  0  0  0  0  0  0  0  0  0  0  0
   -0.5090   16.5880   19.0120 H   0  0  0  0  0  0  0  0  0  0  0  0
    0.7230   18.3190   17.6960 H   0  0  0  0  0  0  0  0  0  0  0  0
    3.6180   18.2050   18.0280 H   0  0  0  0  0  0  0  0  0  0  0  0
    2.1000   15.8170   16.8700 H   0  0  0  0  0  0  0  0  0  0  0  0
    0.4500   16.1550   16.7430 H   0  0  0  0  0  0  0  0  0  0  0  0
   -0.2250   18.1060   16.2570 H   0  0  0  0  0  0  0  0  0  0  0  0
    3.9810   20.5500   18.7100 H   0  0  0  0  0  0  0  0  0  0  0  0
    0.1570   18.9280   12.8040 H   0  0  0  0  0  0  0  0  0  0  0  0
    5.2530   19.4000   16.7610 H   0  0  0  0  0  0  0  0  0  0  0  0
    5.2980   21.0000   16.0280 H   0  0  0  0  0  0  0  0  0  0  0  0
    1.7520   17.7150   11.3950 H   0  0  0  0  0  0  0  0  0  0  0  0
    2.7660   22.2220   16.7340 H   0  0  0  0  0  0  0  0  0  0  0  0
    2.8040   22.3570   18.3450 H   0  0  0  0  0  0  0  0  0  0  0  0
    5.0480   14.4500   10.5910 H   0  0  0  0  0  0  0  0  0  0  0  0
    3.8000   14.8430    9.3930 H   0  0  0  0  0  0  0  0  0  0  0  0
    6.0070   15.3280    8.4830 H   0  0  0  0  0  0  0  0  0  0  0  0
    5.1510   16.8650    8.7510 H   0  0  0  0  0  0  0  0  0  0  0  0
    6.4080   16.3220    9.8960 H   0  0  0  0  0  0  0  0  0  0  0  0
    4.9040   23.1500   16.4500 H   0  0  0  0  0  0  0  0  0  0  0  0
    3.8940   24.1960   17.4530 H   0  0  0  0  0  0  0  0  0  0  0  0
    5.8000   24.1830   18.7030 H   0  0  0  0  0  0  0  0  0  0  0  0
    5.0040   22.7880   19.4440 H   0  0  0  0  0  0  0  0  0  0  0  0
    7.0480   22.7130   17.1710 H   0  0  0  0  0  0  0  0  0  0  0  0
    7.4220   22.4270   18.8660 H   0  0  0  0  0  0  0  0  0  0  0  0
    6.1240   20.3960   18.9070 H   0  0  0  0  0  0  0  0  0  0  0  0
    7.4880   19.1570   17.3930 H   0  0  0  0  0  0  0  0  0  0  0  0
    7.9200   20.5300   16.5950 H   0  0  0  0  0  0  0  0  0  0  0  0
    8.3600   20.3230   18.1590 H   0  0  0  0  0  0  0  0  0  0  0  0
  1  2  2  0  0  0  0
  1  3  1  0  0  0  0
  1 33  1  0  0  0  0
  2  4  1  0  0  0  0
  2 34  1  0  0  0  0
  3  6  2  0  0  0  0
  3 35  1  0  0  0  0
  4  5  2  0  0  0  0
  4 36  1  0  0  0  0
  5  6  1  0  0  0  0
  5 37  1  0  0  0  0
  6  7  1  0  0  0  0
  7  8  1  0  0  0  0
  7  9  1  0  0  0  0
  7 38  1  0  0  0  0
  8 10  1  0  0  0  0
  8 39  1  0  0  0  0
  9 11  1  0  0  0  0
  9 40  1  0  0  0  0
  9 41  1  0  0  0  0
 10 15  1  0  0  0  0
 10 20  2  0  0  0  0
 11 12  1  0  0  0  0
 11 14  1  0  0  0  0
 12 13  1  0  0  0  0
 12 21  2  0  0  0  0
 13 42  1  0  0  0  0
 14 16  2  0  0  0  0
 14 17  1  0  0  0  0
 15 23  1  0  0  0  0
 15 25  1  0  0  0  0
 15 43  1  0  0  0  0
 17 18  1  0  0  0  0
 17 24  2  0  0  0  0
 18 19  2  0  0  0  0
 18 22  1  0  0  0  0
 21 24  1  0  0  0  0
 21 44  1  0  0  0  0
 22 26  1  0  0  0  0
 23 31  1  0  0  0  0
 23 45  1  0  0  0  0
 23 46  1  0  0  0  0
 24 47  1  0  0  0  0
 25 28  1  0  0  0  0
 25 48  1  0  0  0  0
 25 49  1  0  0  0  0
 26 27  1  0  0  0  0
 26 50  1  0  0  0  0
 26 51  1  0  0  0  0
 27 52  1  0  0  0  0
 27 53  1  0  0  0  0
 27 54  1  0  0  0  0
 28 29  1  0  0  0  0
 28 55  1  0  0  0  0
 28 56  1  0  0  0  0
 29 30  1  0  0  0  0
 29 57  1  0  0  0  0
 29 58  1  0  0  0  0
 30 31  1  0  0  0  0
 30 59  1  0  0  0  0
 30 60  1  0  0  0  0
 31 32  1  0  0  0  0
 31 61  1  0  0  0  0
 32 62  1  0  0  0  0
 32 63  1  0  0  0  0
 32 64  1  0  0  0  0
M  CHG  1  25   1
M  CHG  1  32   1
M  END
> <rseq>
1

> <mseq>
323

> <S>
-6.698384

> <rmsd_refine>
0.7887721

> <E_conf>
-134.9823

> <E_score1>
-9.569943

> <E_refine>
-30.96328

> <E_score2>
-6.698384

>  <$File>
outputs/pdb_4j58_cleaned.pdb_2024_06_17__22_47_40_V2_BS398_MIN1_/SDF/sdf_db.sdf

> <Rec_index>
1

>  <PLIF_raw>
[[15,32],[1504,953],[101,62],[3,1],[0.5,3]]

> <FP:PLIF>
28 35 8

>  <PLIF_ligidx>
[32,32,15]

$$$$
323
  MOE2022           3D

 57 60  0  0  1  0  0  0  0  0999 V2000
    1.5750   16.1590   20.5780 C   0  0  0  0  0  0  0  0  0  0  0  0
    0.2410   15.7930   20.4330 C   0  0  0  0  0  0  0  0  0  0  0  0
    2.2550   16.7400   19.5130 C   0  0  0  0  0  0  0  0  0  0  0  0
   -0.4060   15.9890   19.2200 C   0  0  0  0  0  0  0  0  0  0  0  0
    0.2710   16.5790   18.1580 C   0  0  0  0  0  0  0  0  0  0  0  0
    1.6020   16.9710   18.2980 C   0  0  0  0  0  0  0  0  0  0  0  0
    2.2980   17.6200   17.1140 C   0  0  1  0  0  0  0  0  0  0  0  0
    3.3610   18.5460   17.5340 N   0  0  0  0  0  0  0  0  0  0  0  0
    2.7680   16.5780   16.1070 C   0  0  0  0  0  0  0  0  0  0  0  0
    4.1310   19.3080   16.6860 C   0  0  0  0  0  0  0  0  0  0  0  0
    2.2050   16.6410   14.8920 N   0  0  0  0  0  0  0  0  0  0  0  0
    3.9170   19.2240   15.4770 O   0  0  0  0  0  0  0  0  0  0  0  0
    5.1610   20.1750   17.2730 C   0  0  0  0  0  0  0  0  0  0  0  0
    3.6420   15.7560   16.3770 O   0  0  0  0  0  0  0  0  0  0  0  0
    2.6190   15.8310   13.7570 C   0  0  1  0  0  0  0  0  0  0  0  0
    1.6270   14.7250   13.4270 C   0  0  0  0  0  0  0  0  0  0  0  0
    2.7290   16.6350   12.4620 C   0  0  0  0  0  0  0  0  0  0  0  0
    5.5990   19.9630   18.5920 C   0  0  0  0  0  0  0  0  0  0  0  0
    1.4470   14.8100   11.9060 C   0  0  0  0  0  0  0  0  0  0  0  0
    5.7540   21.2370   16.5530 C   0  0  0  0  0  0  0  0  0  0  0  0
    2.4920   15.7000   11.3590 N   0  0  0  0  0  0  0  0  0  0  0  0
    6.5730   20.7860   19.1450 C   0  0  0  0  0  0  0  0  0  0  0  0
    5.3810   21.5170   15.2690 O   0  0  0  0  0  0  0  0  0  0  0  0
    3.6970   15.1540   10.8460 C   0  0  0  0  0  0  0  0  0  0  0  0
    7.1490   21.8280   18.4220 C   0  0  0  0  0  0  0  0  0  0  0  0
    6.7370   22.0520   17.1160 C   0  0  0  0  0  0  0  0  0  0  0  0
    6.9780   20.5650   20.4260 O   0  0  0  0  0  0  0  0  0  0  0  0
    4.5810   16.0170   10.1830 C   0  0  0  0  0  0  0  0  0  0  0  0
    5.8020   15.5390    9.7240 C   0  0  0  0  0  0  0  0  0  0  0  0
    4.0380   13.8030   11.0080 C   0  0  0  0  0  0  0  0  0  0  0  0
    6.1500   14.2070    9.9190 C   0  0  0  0  0  0  0  0  0  0  0  0
    5.2660   13.3410   10.5530 C   0  0  0  0  0  0  0  0  0  0  0  0
    2.0730   15.9990   21.5000 H   0  0  0  0  0  0  0  0  0  0  0  0
   -0.2860   15.3670   21.2420 H   0  0  0  0  0  0  0  0  0  0  0  0
    3.2730   17.0040   19.6350 H   0  0  0  0  0  0  0  0  0  0  0  0
   -1.4180   15.6980   19.1050 H   0  0  0  0  0  0  0  0  0  0  0  0
   -0.2350   16.7310   17.2390 H   0  0  0  0  0  0  0  0  0  0  0  0
    1.5520   18.2320   16.6230 H   0  0  0  0  0  0  0  0  0  0  0  0
    3.4550   18.6970   18.5490 H   0  0  0  0  0  0  0  0  0  0  0  0
    1.4980   17.3400   14.7210 H   0  0  0  0  0  0  0  0  0  0  0  0
    3.5930   15.3760   13.9350 H   0  0  0  0  0  0  0  0  0  0  0  0
    2.0490   13.7590   13.7070 H   0  0  0  0  0  0  0  0  0  0  0  0
    0.6690   14.8750   13.9270 H   0  0  0  0  0  0  0  0  0  0  0  0
    1.9670   17.4030   12.4390 H   0  0  0  0  0  0  0  0  0  0  0  0
    3.6800   17.1440   12.3980 H   0  0  0  0  0  0  0  0  0  0  0  0
    5.1970   19.1770   19.1760 H   0  0  0  0  0  0  0  0  0  0  0  0
    1.4170   13.8380   11.4340 H   0  0  0  0  0  0  0  0  0  0  0  0
    0.4830   15.2540   11.6950 H   0  0  0  0  0  0  0  0  0  0  0  0
    4.6600   20.9120   14.9930 H   0  0  0  0  0  0  0  0  0  0  0  0
    7.8940   22.4390   18.8640 H   0  0  0  0  0  0  0  0  0  0  0  0
    7.1650   22.8390   16.5500 H   0  0  0  0  0  0  0  0  0  0  0  0
    6.6350   19.7110   20.7500 H   0  0  0  0  0  0  0  0  0  0  0  0
    4.3170   17.0320   10.0330 H   0  0  0  0  0  0  0  0  0  0  0  0
    6.4690   16.1890    9.2210 H   0  0  0  0  0  0  0  0  0  0  0  0
    3.3840   13.1280   11.4890 H   0  0  0  0  0  0  0  0  0  0  0  0
    7.0840   13.8460    9.5850 H   0  0  0  0  0  0  0  0  0  0  0  0
    5.5330   12.3250   10.6930 H   0  0  0  0  0  0  0  0  0  0  0  0
  1  2  2  0  0  0  0
  1  3  1  0  0  0  0
  1 33  1  0  0  0  0
  2  4  1  0  0  0  0
  2 34  1  0  0  0  0
  3  6  2  0  0  0  0
  3 35  1  0  0  0  0
  4  5  2  0  0  0  0
  4 36  1  0  0  0  0
  5  6  1  0  0  0  0
  5 37  1  0  0  0  0
  6  7  1  0  0  0  0
  7  8  1  0  0  0  0
  7  9  1  0  0  0  0
  7 38  1  0  0  0  0
  8 10  1  0  0  0  0
  8 39  1  0  0  0  0
  9 11  1  0  0  0  0
  9 14  2  0  0  0  0
 10 12  2  0  0  0  0
 10 13  1  0  0  0  0
 11 15  1  0  0  0  0
 11 40  1  0  0  0  0
 13 18  2  0  0  0  0
 13 20  1  0  0  0  0
 15 16  1  0  0  0  0
 15 17  1  0  0  0  0
 15 41  1  0  0  0  0
 16 19  1  0  0  0  0
 16 42  1  0  0  0  0
 16 43  1  0  0  0  0
 17 21  1  0  0  0  0
 17 44  1  0  0  0  0
 17 45  1  0  0  0  0
 18 22  1  0  0  0  0
 18 46  1  0  0  0  0
 19 21  1  0  0  0  0
 19 47  1  0  0  0  0
 19 48  1  0  0  0  0
 20 23  1  0  0  0  0
 20 26  2  0  0  0  0
 21 24  1  0  0  0  0
 22 25  2  0  0  0  0
 22 27  1  0  0  0  0
 23 49  1  0  0  0  0
 24 28  1  0  0  0  0
 24 30  2  0  0  0  0
 25 26  1  0  0  0  0
 25 50  1  0  0  0  0
 26 51  1  0  0  0  0
 27 52  1  0  0  0  0
 28 29  2  0  0  0  0
 28 53  1  0  0  0  0
 29 31  1  0  0  0  0
 29 54  1  0  0  0  0
 30 32  1  0  0  0  0
 30 55  1  0  0  0  0
 31 32  2  0  0  0  0
 31 56  1  0  0  0  0
 32 57  1  0  0  0  0
M  END
> <rseq>
1

> <mseq>
324

> <S>
-7.277285

> <rmsd_refine>
1.616827

> <E_conf>
-2.039227

> <E_score1>
-9.665908

> <E_refine>
-41.54029

> <E_score2>
-7.277285

>  <$File>
outputs/pdb_4j58_cleaned.pdb_2024_06_17__22_47_40_V2_BS398_MIN1_/SDF/sdf_db.sdf

> <Rec_index>
1

>  <PLIF_raw>
[[14,1,3,6,5,4,2],[954,1519,1519,1519,1519,1519,1519],[62,102,102,102,102,102,102],[2,10,10,10,10,10,10],[1.5,0.6,0.6,0.6,0.6,0.6,0.6]]

> <FP:PLIF>
20 23 22

>  <PLIF_ligidx>
[14,14,[1,3,6,5,4,2]]

$$$$
324
  MOE2022           3D

 63 66  0  0  1  0  0  0  0  0999 V2000
    6.1500   14.4430   10.0890 C   0  0  0  0  0  0  0  0  0  0  0  0
    5.8240   15.7160    9.6340 C   0  0  0  0  0  0  0  0  0  0  0  0
    4.5820   16.2650    9.9300 C   0  0  0  0  0  0  0  0  0  0  0  0
    3.6460   15.5420   10.6810 C   0  0  0  0  0  0  0  0  0  0  0  0
    3.9810   14.2540   11.1200 C   0  0  0  0  0  0  0  0  0  0  0  0
    5.2270   13.7120   10.8280 C   0  0  0  0  0  0  0  0  0  0  0  0
    2.3280   16.1140   10.9530 C   0  0  0  0  0  0  0  0  0  0  0  0
    1.8320   16.1880   12.2520 N   0  0  0  0  0  0  0  0  0  0  0  0
    1.6320   16.5470   10.0370 O   0  0  0  0  0  0  0  0  0  0  0  0
    2.7190   16.1840   13.4370 C   0  0  0  0  0  0  0  0  0  0  0  0
    0.4780   16.7330   12.5000 C   0  0  0  0  0  0  0  0  0  0  0  0
    2.0330   15.6660   14.7120 C   0  0  0  0  0  0  0  0  0  0  0  0
   -0.1720   16.2000   13.7880 C   0  0  0  0  0  0  0  0  0  0  0  0
    0.7280   16.3040   14.9460 N   0  0  0  0  0  0  0  0  0  0  0  0
    0.3070   16.8040   16.1720 C   0  0  0  0  0  0  0  0  0  0  0  0
   -0.8900   17.0280   16.3340 O   0  0  0  0  0  0  0  0  0  0  0  0
    1.2730   17.0630   17.2350 C   0  0  0  0  0  0  0  0  0  0  0  0
    2.3390   17.9470   17.0350 C   0  0  0  0  0  0  0  0  0  0  0  0
    1.1210   16.4400   18.4800 C   0  0  0  0  0  0  0  0  0  0  0  0
    2.0300   16.6740   19.5080 C   0  0  0  0  0  0  0  0  0  0  0  0
    3.2480   18.1860   18.0650 C   0  0  0  0  0  0  0  0  0  0  0  0
    3.0980   17.5420   19.2990 C   0  0  0  0  0  0  0  0  0  0  0  0
    1.8440   15.9970   20.8490 C   0  0  0  0  0  0  0  0  0  0  0  0
    4.3330   19.0660   17.7650 N   0  0  0  0  0  0  0  0  0  0  0  0
    5.2250   19.6900   18.6170 C   0  0  0  0  0  0  0  0  0  0  0  0
    5.0780   19.6920   19.8250 O   0  0  0  0  0  0  0  0  0  0  0  0
    6.3860   20.4040   17.9430 C   0  0  2  0  0  0  0  0  0  0  0  0
    7.7600   20.1390   18.5800 C   0  0  0  0  0  0  0  0  0  0  0  0
    6.2480   21.9300   17.9220 C   0  0  2  0  0  0  0  0  0  0  0  0
    5.3710   22.4550   16.7780 C   0  0  0  0  0  0  0  0  0  0  0  0
    7.6870   22.4510   17.8630 C   0  0  0  0  0  0  0  0  0  0  0  0
    8.4260   21.4990   18.8110 C   0  0  0  0  0  0  0  0  0  0  0  0
    7.0990   14.0260    9.8710 H   0  0  0  0  0  0  0  0  0  0  0  0
    6.5200   16.2620    9.0540 H   0  0  0  0  0  0  0  0  0  0  0  0
    4.3380   17.2340    9.5760 H   0  0  0  0  0  0  0  0  0  0  0  0
    3.2780   13.6860   11.6750 H   0  0  0  0  0  0  0  0  0  0  0  0
    5.4760   12.7380   11.1630 H   0  0  0  0  0  0  0  0  0  0  0  0
    3.6030   15.5930   13.2690 H   0  0  0  0  0  0  0  0  0  0  0  0
    3.0690   17.1920   13.6140 H   0  0  0  0  0  0  0  0  0  0  0  0
    0.5380   17.8110   12.5580 H   0  0  0  0  0  0  0  0  0  0  0  0
   -0.1830   16.5180   11.6720 H   0  0  0  0  0  0  0  0  0  0  0  0
    1.8800   14.6010   14.6080 H   0  0  0  0  0  0  0  0  0  0  0  0
    2.7020   15.7750   15.5530 H   0  0  0  0  0  0  0  0  0  0  0  0
   -1.1010   16.7280   13.9530 H   0  0  0  0  0  0  0  0  0  0  0  0
   -0.4450   15.1630   13.6440 H   0  0  0  0  0  0  0  0  0  0  0  0
    2.4530   18.4350   16.1020 H   0  0  0  0  0  0  0  0  0  0  0  0
    0.3060   15.7810   18.6360 H   0  0  0  0  0  0  0  0  0  0  0  0
    3.7880   17.7020   20.0790 H   0  0  0  0  0  0  0  0  0  0  0  0
    2.7650   16.0180   21.4330 H   0  0  0  0  0  0  0  0  0  0  0  0
    1.0630   16.5000   21.4180 H   0  0  0  0  0  0  0  0  0  0  0  0
    1.5530   14.9570   20.7130 H   0  0  0  0  0  0  0  0  0  0  0  0
    4.4880   19.2470   16.7630 H   0  0  0  0  0  0  0  0  0  0  0  0
    6.4540   20.0690   16.9160 H   0  0  0  0  0  0  0  0  0  0  0  0
    7.6770   19.6040   19.5260 H   0  0  0  0  0  0  0  0  0  0  0  0
    8.3670   19.5490   17.8910 H   0  0  0  0  0  0  0  0  0  0  0  0
    5.8110   22.2340   18.8760 H   0  0  0  0  0  0  0  0  0  0  0  0
    5.3230   23.5430   16.8250 H   0  0  0  0  0  0  0  0  0  0  0  0
    5.7880   22.1580   15.8150 H   0  0  0  0  0  0  0  0  0  0  0  0
    4.3620   22.0530   16.8740 H   0  0  0  0  0  0  0  0  0  0  0  0
    8.0880   22.3490   16.8530 H   0  0  0  0  0  0  0  0  0  0  0  0
    7.7530   23.4850   18.1990 H   0  0  0  0  0  0  0  0  0  0  0  0
    8.2520   21.8150   19.8400 H   0  0  0  0  0  0  0  0  0  0  0  0
    9.4970   21.4690   18.6030 H   0  0  0  0  0  0  0  0  0  0  0  0
  1  2  2  0  0  0  0
  1  6  1  0  0  0  0
  1 33  1  0  0  0  0
  2  3  1  0  0  0  0
  2 34  1  0  0  0  0
  3  4  2  0  0  0  0
  3 35  1  0  0  0  0
  4  5  1  0  0  0  0
  4  7  1  0  0  0  0
  5  6  2  0  0  0  0
  5 36  1  0  0  0  0
  6 37  1  0  0  0  0
  7  8  1  0  0  0  0
  7  9  2  0  0  0  0
  8 10  1  0  0  0  0
  8 11  1  0  0  0  0
 10 12  1  0  0  0  0
 10 38  1  0  0  0  0
 10 39  1  0  0  0  0
 11 13  1  0  0  0  0
 11 40  1  0  0  0  0
 11 41  1  0  0  0  0
 12 14  1  0  0  0  0
 12 42  1  0  0  0  0
 12 43  1  0  0  0  0
 13 14  1  0  0  0  0
 13 44  1  0  0  0  0
 13 45  1  0  0  0  0
 14 15  1  0  0  0  0
 15 16  2  0  0  0  0
 15 17  1  0  0  0  0
 17 18  2  0  0  0  0
 17 19  1  0  0  0  0
 18 21  1  0  0  0  0
 18 46  1  0  0  0  0
 19 20  2  0  0  0  0
 19 47  1  0  0  0  0
 20 22  1  0  0  0  0
 20 23  1  0  0  0  0
 21 22  2  0  0  0  0
 21 24  1  0  0  0  0
 22 48  1  0  0  0  0
 23 49  1  0  0  0  0
 23 50  1  0  0  0  0
 23 51  1  0  0  0  0
 24 25  1  0  0  0  0
 24 52  1  0  0  0  0
 25 26  2  0  0  0  0
 25 27  1  0  0  0  0
 27 28  1  0  0  0  0
 27 29  1  0  0  0  0
 27 53  1  0  0  0  0
 28 32  1  0  0  0  0
 28 54  1  0  0  0  0
 28 55  1  0  0  0  0
 29 30  1  0  0  0  0
 29 31  1  0  0  0  0
 29 56  1  0  0  0  0
 30 57  1  0  0  0  0
 30 58  1  0  0  0  0
 30 59  1  0  0  0  0
 31 32  1  0  0  0  0
 31 60  1  0  0  0  0
 31 61  1  0  0  0  0
 32 62  1  0  0  0  0
 32 63  1  0  0  0  0
M  END
> <rseq>
1

> <mseq>
325

> <S>
-7.585732

> <rmsd_refine>
1.246642

> <E_conf>
31.6373

> <E_score1>
-10.18467

> <E_refine>
-42.34893

> <E_score2>
-7.585732

>  <$File>
outputs/pdb_4j58_cleaned.pdb_2024_06_17__22_47_40_V2_BS398_MIN1_/SDF/sdf_db.sdf

> <Rec_index>
1

>  <PLIF_raw>
[[26,1,6,5,4,3,2],[1499,820,820,820,820,820,820],[101,54,54,54,54,54,54],[4,10,10,10,10,10,10],[2.8,0.6,0.6,0.6,0.6,0.6,0.6]]

> <FP:PLIF>
2 11 12

>  <PLIF_ligidx>
[[1,6,5,4,3,2],26,26]

$$$$
325
  MOE2022           3D

 59 61  0  0  1  0  0  0  0  0999 V2000
    3.2860   17.2990   19.3660 O   0  0  0  0  0  0  0  0  0  0  0  0
    2.3700   17.6240   18.6130 C   0  0  0  0  0  0  0  0  0  0  0  0
    2.5450   18.7090   17.7910 N   0  0  0  0  0  0  0  0  0  0  0  0
    1.1000   16.8940   18.5270 C   0  0  0  0  0  0  0  0  0  0  0  0
    0.0480   17.3360   17.7060 C   0  0  0  0  0  0  0  0  0  0  0  0
   -1.1280   16.6040   17.6020 C   0  0  0  0  0  0  0  0  0  0  0  0
    0.9260   15.7030   19.2480 C   0  0  0  0  0  0  0  0  0  0  0  0
    3.8370   19.1940   17.3080 C   0  0  1  0  0  0  0  0  0  0  0  0
   -0.2500   14.9700   19.1330 C   0  0  0  0  0  0  0  0  0  0  0  0
   -1.2780   15.4190   18.3130 C   0  0  0  0  0  0  0  0  0  0  0  0
    3.7990   19.3030   15.7790 C   0  0  0  0  0  0  0  0  0  0  0  0
    3.4630   18.1910   14.9890 C   0  0  0  0  0  0  0  0  0  0  0  0
    3.2850   16.9550   15.5540 O   0  0  0  0  0  0  0  0  0  0  0  0
    3.2960   18.2900   13.6120 C   0  0  0  0  0  0  0  0  0  0  0  0
    3.4980   19.5240   13.0010 C   0  0  0  0  0  0  0  0  0  0  0  0
    4.2140   20.5010   18.0290 C   0  0  0  0  0  0  0  0  0  0  0  0
    3.2630   19.7130   11.6500 O   0  0  0  0  0  0  0  0  0  0  0  0
    3.9030   20.6290   13.7510 C   0  0  0  0  0  0  0  0  0  0  0  0
    5.2250   21.3530   17.2480 C   0  0  1  0  0  0  0  0  0  0  0  0
    4.0730   20.5180   15.1330 C   0  0  0  0  0  0  0  0  0  0  0  0
    3.7200   18.9890   10.4610 C   0  0  0  0  0  0  0  0  0  0  0  0
    4.5470   21.7300   15.9200 C   0  0  0  0  0  0  0  0  0  0  0  0
    3.5480   17.4820   10.4860 C   0  0  0  0  0  0  0  0  0  0  0  0
    5.7140   22.5960   18.0110 C   0  0  0  0  0  0  0  0  0  0  0  0
    2.4500   16.9550   10.6550 O   0  0  0  0  0  0  0  0  0  0  0  0
    4.6540   16.7540   10.2630 N   0  0  0  0  0  0  0  0  0  0  0  0
    4.6690   15.2970   10.2650 C   0  0  0  0  0  0  0  0  0  0  0  0
    5.0740   22.9800   19.0170 O   0  0  0  0  0  0  0  0  0  0  0  0
    5.9990   14.7810    9.7060 C   0  0  0  0  0  0  0  0  0  0  0  0
    6.0110   13.2520    9.6000 C   0  0  0  0  0  0  0  0  0  0  0  0
    6.1150   12.5900   10.9140 N   0  3  0  0  0  0  0  0  0  0  0  0
    6.7460   23.1460   17.5700 O   0  5  0  0  0  0  0  0  0  0  0  0
    1.7380   19.0220   17.2350 H   0  0  0  0  0  0  0  0  0  0  0  0
    0.1370   18.2330   17.1500 H   0  0  0  0  0  0  0  0  0  0  0  0
   -1.9130   16.9490   16.9780 H   0  0  0  0  0  0  0  0  0  0  0  0
    1.7030   15.3460   19.8750 H   0  0  0  0  0  0  0  0  0  0  0  0
    4.6030   18.4750   17.5450 H   0  0  0  0  0  0  0  0  0  0  0  0
   -0.3650   14.0610   19.6590 H   0  0  0  0  0  0  0  0  0  0  0  0
   -2.1730   14.8580   18.2270 H   0  0  0  0  0  0  0  0  0  0  0  0
    2.9330   16.3230   14.8980 H   0  0  0  0  0  0  0  0  0  0  0  0
    3.0010   17.4430   13.0540 H   0  0  0  0  0  0  0  0  0  0  0  0
    3.3110   21.0940   18.1870 H   0  0  0  0  0  0  0  0  0  0  0  0
    4.6270   20.2480   19.0060 H   0  0  0  0  0  0  0  0  0  0  0  0
    4.0730   21.5560   13.2660 H   0  0  0  0  0  0  0  0  0  0  0  0
    6.0990   20.7360   17.0320 H   0  0  0  0  0  0  0  0  0  0  0  0
    3.1750   19.3850    9.6140 H   0  0  0  0  0  0  0  0  0  0  0  0
    4.7520   19.2520   10.2810 H   0  0  0  0  0  0  0  0  0  0  0  0
    3.6910   22.3760   16.1210 H   0  0  0  0  0  0  0  0  0  0  0  0
    5.2600   22.2910   15.3140 H   0  0  0  0  0  0  0  0  0  0  0  0
    5.5130   17.2340   10.0370 H   0  0  0  0  0  0  0  0  0  0  0  0
    4.5290   14.9360   11.2850 H   0  0  0  0  0  0  0  0  0  0  0  0
    3.8510   14.9290    9.6430 H   0  0  0  0  0  0  0  0  0  0  0  0
    6.1360   15.1930    8.7050 H   0  0  0  0  0  0  0  0  0  0  0  0
    6.8240   15.1160   10.3330 H   0  0  0  0  0  0  0  0  0  0  0  0
    5.0980   12.9250    9.0980 H   0  0  0  0  0  0  0  0  0  0  0  0
    6.8640   12.9530    8.9900 H   0  0  0  0  0  0  0  0  0  0  0  0
    6.9750   12.8590   11.3750 H   0  0  0  0  0  0  0  0  0  0  0  0
    5.3310   12.8380   11.5040 H   0  0  0  0  0  0  0  0  0  0  0  0
    6.1250   11.5880   10.7940 H   0  0  0  0  0  0  0  0  0  0  0  0
  1  2  2  0  0  0  0
  2  3  1  0  0  0  0
  2  4  1  0  0  0  0
  3  8  1  0  0  0  0
  3 33  1  0  0  0  0
  4  5  2  0  0  0  0
  4  7  1  0  0  0  0
  5  6  1  0  0  0  0
  5 34  1  0  0  0  0
  6 10  2  0  0  0  0
  6 35  1  0  0  0  0
  7  9  2  0  0  0  0
  7 36  1  0  0  0  0
  8 11  1  0  0  0  0
  8 16  1  0  0  0  0
  8 37  1  0  0  0  0
  9 10  1  0  0  0  0
  9 38  1  0  0  0  0
 10 39  1  0  0  0  0
 11 12  1  0  0  0  0
 11 20  2  0  0  0  0
 12 13  1  0  0  0  0
 12 14  2  0  0  0  0
 13 40  1  0  0  0  0
 14 15  1  0  0  0  0
 14 41  1  0  0  0  0
 15 17  1  0  0  0  0
 15 18  2  0  0  0  0
 16 19  1  0  0  0  0
 16 42  1  0  0  0  0
 16 43  1  0  0  0  0
 17 21  1  0  0  0  0
 18 20  1  0  0  0  0
 18 44  1  0  0  0  0
 19 22  1  0  0  0  0
 19 24  1  0  0  0  0
 19 45  1  0  0  0  0
 20 22  1  0  0  0  0
 21 23  1  0  0  0  0
 21 46  1  0  0  0  0
 21 47  1  0  0  0  0
 22 48  1  0  0  0  0
 22 49  1  0  0  0  0
 23 25  2  0  0  0  0
 23 26  1  0  0  0  0
 24 28  2  0  0  0  0
 24 32  1  0  0  0  0
 26 27  1  0  0  0  0
 26 50  1  0  0  0  0
 27 29  1  0  0  0  0
 27 51  1  0  0  0  0
 27 52  1  0  0  0  0
 29 30  1  0  0  0  0
 29 53  1  0  0  0  0
 29 54  1  0  0  0  0
 30 31  1  0  0  0  0
 30 55  1  0  0  0  0
 30 56  1  0  0  0  0
 31 57  1  0  0  0  0
 31 58  1  0  0  0  0
 31 59  1  0  0  0  0
M  CHG  1  31   1
M  CHG  1  32  -1
M  END
> <rseq>
1

> <mseq>
326

> <S>
-6.435972

> <rmsd_refine>
1.570364

> <E_conf>
-191.0627

> <E_score1>
-11.47184

> <E_refine>
-33.96345

> <E_score2>
-6.435972

>  <$File>
outputs/pdb_4j58_cleaned.pdb_2024_06_17__22_47_40_V2_BS398_MIN1_/SDF/sdf_db.sdf

> <Rec_index>
1

>  <PLIF_raw>
[[26,31,31,28],[2222,796,1056,1872],[148,53,70,125],[3,3,3,7],[1.2,1.8,3.8,3.395495194]]

> <FP:PLIF>
49 50 3 4 13 39

>  <PLIF_ligidx>
[31,31,31,31,28,26]

$$$$
326
  MOE2022           3D

 57 60  0  0  1  0  0  0  0  0999 V2000
    2.7750   16.3890   20.7830 C   0  0  0  0  0  0  0  0  0  0  0  0
    1.5330   15.8600   21.1040 C   0  0  0  0  0  0  0  0  0  0  0  0
    2.9430   17.1340   19.6210 C   0  0  0  0  0  0  0  0  0  0  0  0
    0.4560   16.0620   20.2490 C   0  0  0  0  0  0  0  0  0  0  0  0
    0.6290   16.7890   19.0750 C   0  0  0  0  0  0  0  0  0  0  0  0
    1.8720   17.3360   18.7510 C   0  0  0  0  0  0  0  0  0  0  0  0
    2.0270   18.0780   17.4300 C   0  0  1  0  0  0  0  0  0  0  0  0
    3.1110   19.0870   17.4450 N   0  0  0  0  0  0  0  0  0  0  0  0
    2.1780   17.0300   16.2980 C   0  0  0  0  0  0  0  0  0  0  0  0
    2.8870   20.4150   17.4430 C   0  0  0  0  0  0  0  0  0  0  0  0
    2.3500   17.4430   14.8690 N   0  0  0  0  0  0  0  0  0  0  0  0
    1.8390   18.6400   14.3250 C   0  0  0  0  0  0  0  0  0  0  0  0
    1.0590   19.3160   14.9970 O   0  0  0  0  0  0  0  0  0  0  0  0
    2.9050   16.4680   14.0080 C   0  0  0  0  0  0  0  0  0  0  0  0
    4.0840   21.3900   17.4070 C   0  0  0  0  0  0  0  0  0  0  0  0
    3.1710   15.3370   14.4240 O   0  0  0  0  0  0  0  0  0  0  0  0
    3.1480   16.8060   12.6690 N   0  0  0  0  0  0  0  0  0  0  0  0
    2.2390   18.9960   13.0080 C   0  0  0  0  0  0  0  0  0  0  0  0
    2.9130   18.1110   12.2210 C   0  0  0  0  0  0  0  0  0  0  0  0
    3.4040   18.4540   10.9600 N   0  0  0  0  0  0  0  0  0  0  0  0
    1.7550   20.8910   17.4870 O   0  0  0  0  0  0  0  0  0  0  0  0
    3.5400   15.7590   11.7030 C   0  0  0  0  0  0  0  0  0  0  0  0
    4.3640   16.2990   10.5530 C   0  0  0  0  0  0  0  0  0  0  0  0
    5.2660   15.4010    9.8520 C   0  0  0  0  0  0  0  0  0  0  0  0
    4.2170   17.6010   10.2080 C   0  0  0  0  0  0  0  0  0  0  0  0
    5.2790   14.1740   10.1350 O   0  5  0  0  0  0  0  0  0  0  0  0
    4.5850   21.7710   18.8150 C   0  0  0  0  0  0  0  0  0  0  0  0
    6.0580   15.8620    8.9860 O   0  0  0  0  0  0  0  0  0  0  0  0
    5.4960   20.7170   19.4720 C   0  0  0  0  0  0  0  0  0  0  0  0
    5.2420   20.9710   16.4620 C   0  0  0  0  0  0  0  0  0  0  0  0
    6.5880   20.7530   17.1820 C   0  0  0  0  0  0  0  0  0  0  0  0
    6.3630   19.9550   18.4680 C   0  0  0  0  0  0  0  0  0  0  0  0
    3.5980   16.2210   21.4250 H   0  0  0  0  0  0  0  0  0  0  0  0
    1.4140   15.3050   21.9960 H   0  0  0  0  0  0  0  0  0  0  0  0
    3.8920   17.5440   19.4030 H   0  0  0  0  0  0  0  0  0  0  0  0
   -0.4950   15.6620   20.4860 H   0  0  0  0  0  0  0  0  0  0  0  0
   -0.1930   16.9240   18.4200 H   0  0  0  0  0  0  0  0  0  0  0  0
    1.0860   18.5840   17.2700 H   0  0  0  0  0  0  0  0  0  0  0  0
    4.0640   18.7620   17.4460 H   0  0  0  0  0  0  0  0  0  0  0  0
    3.0160   16.4080   16.5810 H   0  0  0  0  0  0  0  0  0  0  0  0
    1.3270   16.3640   16.3490 H   0  0  0  0  0  0  0  0  0  0  0  0
    3.6810   22.3120   16.9830 H   0  0  0  0  0  0  0  0  0  0  0  0
    1.9950   19.9620   12.6500 H   0  0  0  0  0  0  0  0  0  0  0  0
    3.2480   19.4160   10.6180 H   0  0  0  0  0  0  0  0  0  0  0  0
    4.0710   14.9540   12.1900 H   0  0  0  0  0  0  0  0  0  0  0  0
    2.6490   15.2960   11.3000 H   0  0  0  0  0  0  0  0  0  0  0  0
    4.6990   18.0590    9.3820 H   0  0  0  0  0  0  0  0  0  0  0  0
    5.1590   22.6950   18.7220 H   0  0  0  0  0  0  0  0  0  0  0  0
    3.7360   21.9880   19.4630 H   0  0  0  0  0  0  0  0  0  0  0  0
    6.1570   21.2190   20.1770 H   0  0  0  0  0  0  0  0  0  0  0  0
    4.8890   19.9970   20.0210 H   0  0  0  0  0  0  0  0  0  0  0  0
    4.9730   20.0600   15.9290 H   0  0  0  0  0  0  0  0  0  0  0  0
    5.3830   21.7490   15.7100 H   0  0  0  0  0  0  0  0  0  0  0  0
    7.2780   20.2150   16.5340 H   0  0  0  0  0  0  0  0  0  0  0  0
    7.0380   21.7160   17.4280 H   0  0  0  0  0  0  0  0  0  0  0  0
    7.3200   19.6990   18.9250 H   0  0  0  0  0  0  0  0  0  0  0  0
    5.8400   19.0380   18.2150 H   0  0  0  0  0  0  0  0  0  0  0  0
  1  2  2  0  0  0  0
  1  3  1  0  0  0  0
  1 33  1  0  0  0  0
  2  4  1  0  0  0  0
  2 34  1  0  0  0  0
  3  6  2  0  0  0  0
  3 35  1  0  0  0  0
  4  5  2  0  0  0  0
  4 36  1  0  0  0  0
  5  6  1  0  0  0  0
  5 37  1  0  0  0  0
  6  7  1  0  0  0  0
  7  8  1  0  0  0  0
  7  9  1  0  0  0  0
  7 38  1  0  0  0  0
  8 10  1  0  0  0  0
  8 39  1  0  0  0  0
  9 11  1  0  0  0  0
  9 40  1  0  0  0  0
  9 41  1  0  0  0  0
 10 15  1  0  0  0  0
 10 21  2  0  0  0  0
 11 12  1  0  0  0  0
 11 14  1  0  0  0  0
 12 13  2  0  0  0  0
 12 18  1  0  0  0  0
 14 16  2  0  0  0  0
 14 17  1  0  0  0  0
 15 27  1  0  0  0  0
 15 30  1  0  0  0  0
 15 42  1  0  0  0  0
 17 19  1  0  0  0  0
 17 22  1  0  0  0  0
 18 19  2  0  0  0  0
 18 43  1  0  0  0  0
 19 20  1  0  0  0  0
 20 25  1  0  0  0  0
 20 44  1  0  0  0  0
 22 23  1  0  0  0  0
 22 45  1  0  0  0  0
 22 46  1  0  0  0  0
 23 24  1  0  0  0  0
 23 25  2  0  0  0  0
 24 26  1  0  0  0  0
 24 28  2  0  0  0  0
 25 47  1  0  0  0  0
 27 29  1  0  0  0  0
 27 48  1  0  0  0  0
 27 49  1  0  0  0  0
 29 32  1  0  0  0  0
 29 50  1  0  0  0  0
 29 51  1  0  0  0  0
 30 31  1  0  0  0  0
 30 52  1  0  0  0  0
 30 53  1  0  0  0  0
 31 32  1  0  0  0  0
 31 54  1  0  0  0  0
 31 55  1  0  0  0  0
 32 56  1  0  0  0  0
 32 57  1  0  0  0  0
M  CHG  1  26  -1
M  END
> <rseq>
1

> <mseq>
327

> <S>
-6.987501

> <rmsd_refine>
0.7012405

> <E_conf>
-252.0358

> <E_score1>
-10.51183

> <E_refine>
-34.36946

> <E_score2>
-6.987501

>  <$File>
outputs/pdb_4j58_cleaned.pdb_2024_06_17__22_47_40_V2_BS398_MIN1_/SDF/sdf_db.sdf

> <Rec_index>
1

>  <PLIF_raw>
[28,823,54,7,0.5052044463]

> <FP:PLIF>
1

>  <PLIF_ligidx>
28

$$$$
327
  MOE2022           3D

 51 53  0  0  0  0  0  0  0  0999 V2000
    2.2520   16.5450   20.4890 C   0  0  0  0  0  0  0  0  0  0  0  0
    2.7580   17.1050   19.3190 C   0  0  0  0  0  0  0  0  0  0  0  0
    0.9480   16.0680   20.5310 C   0  0  0  0  0  0  0  0  0  0  0  0
    0.1660   16.1470   19.3820 C   0  0  0  0  0  0  0  0  0  0  0  0
   -1.1160   15.6790   19.4030 O   0  0  0  0  0  0  0  0  0  0  0  0
    1.9760   17.1780   18.1560 C   0  0  0  0  0  0  0  0  0  0  0  0
    0.6630   16.6940   18.2040 C   0  0  0  0  0  0  0  0  0  0  0  0
    2.5160   17.6890   16.8950 C   0  0  0  0  0  0  0  0  0  0  0  0
    3.1130   18.9600   16.7570 C   0  0  0  0  0  0  0  0  0  0  0  0
    3.6010   19.4030   15.5270 C   0  0  0  0  0  0  0  0  0  0  0  0
    3.2600   19.8610   17.8350 N   0  0  0  0  0  0  0  0  0  0  0  0
    4.5110   20.1910   18.3190 C   0  0  0  0  0  0  0  0  0  0  0  0
    5.3770   19.3240   18.3060 O   0  0  0  0  0  0  0  0  0  0  0  0
    2.4490   16.8730   15.7570 C   0  0  0  0  0  0  0  0  0  0  0  0
    2.9650   17.3060   14.5280 C   0  0  0  0  0  0  0  0  0  0  0  0
    2.9620   16.3920   13.4050 N   0  0  0  0  0  0  0  0  0  0  0  0
    3.5260   18.5840   14.4140 C   0  0  0  0  0  0  0  0  0  0  0  0
    3.4390   16.6160   12.0640 C   0  0  0  0  0  0  0  0  0  0  0  0
    2.7660   14.9980   13.5900 N   0  0  0  0  0  0  0  0  0  0  0  0
    3.6090   17.7210   11.5610 O   0  0  0  0  0  0  0  0  0  0  0  0
    3.5670   15.3080   11.4500 C   0  0  0  0  0  0  0  0  0  0  0  0
    4.7420   21.5670   18.7880 C   0  0  0  0  0  0  0  0  0  0  0  0
    3.1360   14.5830   12.4230 C   0  0  0  0  0  0  0  0  0  0  0  0
    3.6350   15.4020    9.9360 C   0  0  0  0  0  0  0  0  0  0  0  0
    3.8420   22.2710   19.2380 O   0  0  0  0  0  0  0  0  0  0  0  0
    5.9880   22.1560   18.7110 N   0  0  0  0  0  0  0  0  0  0  0  0
    4.9410   15.9850    9.4240 C   0  0  0  0  0  0  0  0  0  0  0  0
    7.1620   21.6370   18.0030 C   0  0  0  0  0  0  0  0  0  0  0  0
    8.1620   21.0160   18.9820 C   0  0  0  0  0  0  0  0  0  0  0  0
    7.8370   22.7480   17.1980 C   0  0  0  0  0  0  0  0  0  0  0  0
    5.9920   15.7140   10.0480 O   0  5  0  0  0  0  0  0  0  0  0  0
    4.8900   16.7060    8.4050 O   0  0  0  0  0  0  0  0  0  0  0  0
    2.8650   16.4820   21.3500 H   0  0  0  0  0  0  0  0  0  0  0  0
    3.7500   17.4710   19.3090 H   0  0  0  0  0  0  0  0  0  0  0  0
    0.5590   15.6540   21.4220 H   0  0  0  0  0  0  0  0  0  0  0  0
   -1.3790   15.3950   20.2990 H   0  0  0  0  0  0  0  0  0  0  0  0
    0.0470   16.7380   17.3430 H   0  0  0  0  0  0  0  0  0  0  0  0
    4.0330   20.3670   15.4420 H   0  0  0  0  0  0  0  0  0  0  0  0
    2.4680   20.4790   18.0790 H   0  0  0  0  0  0  0  0  0  0  0  0
    2.0120   15.9120   15.8390 H   0  0  0  0  0  0  0  0  0  0  0  0
    3.9100   18.9440   13.5000 H   0  0  0  0  0  0  0  0  0  0  0  0
    3.5330   14.4050    9.5310 H   0  0  0  0  0  0  0  0  0  0  0  0
    2.7910   15.9550    9.5460 H   0  0  0  0  0  0  0  0  0  0  0  0
    6.0820   23.1090   19.0900 H   0  0  0  0  0  0  0  0  0  0  0  0
    6.8530   20.8760   17.2880 H   0  0  0  0  0  0  0  0  0  0  0  0
    8.5200   21.7750   19.6770 H   0  0  0  0  0  0  0  0  0  0  0  0
    9.0090   20.6010   18.4370 H   0  0  0  0  0  0  0  0  0  0  0  0
    7.6810   20.2150   19.5440 H   0  0  0  0  0  0  0  0  0  0  0  0
    7.1360   23.1480   16.4650 H   0  0  0  0  0  0  0  0  0  0  0  0
    8.1500   23.5490   17.8650 H   0  0  0  0  0  0  0  0  0  0  0  0
    8.7080   22.3520   16.6750 H   0  0  0  0  0  0  0  0  0  0  0  0
  1  2  2  0  0  0  0
  1  3  1  0  0  0  0
  1 33  1  0  0  0  0
  2  6  1  0  0  0  0
  2 34  1  0  0  0  0
  3  4  2  0  0  0  0
  3 35  1  0  0  0  0
  4  5  1  0  0  0  0
  4  7  1  0  0  0  0
  5 36  1  0  0  0  0
  6  7  2  0  0  0  0
  6  8  1  0  0  0  0
  7 37  1  0  0  0  0
  8  9  1  0  0  0  0
  8 14  2  0  0  0  0
  9 10  2  0  0  0  0
  9 11  1  0  0  0  0
 10 17  1  0  0  0  0
 10 38  1  0  0  0  0
 11 12  1  0  0  0  0
 11 39  1  0  0  0  0
 12 13  2  0  0  0  0
 12 22  1  0  0  0  0
 14 15  1  0  0  0  0
 14 40  1  0  0  0  0
 15 16  1  0  0  0  0
 15 17  2  0  0  0  0
 16 18  1  0  0  0  0
 16 19  1  0  0  0  0
 17 41  1  0  0  0  0
 18 20  2  0  0  0  0
 18 21  1  0  0  0  0
 19 23  2  0  0  0  0
 21 23  2  0  0  0  0
 21 24  1  0  0  0  0
 22 25  2  0  0  0  0
 22 26  1  0  0  0  0
 24 27  1  0  0  0  0
 24 42  1  0  0  0  0
 24 43  1  0  0  0  0
 26 28  1  0  0  0  0
 26 44  1  0  0  0  0
 27 31  1  0  0  0  0
 27 32  2  0  0  0  0
 28 29  1  0  0  0  0
 28 30  1  0  0  0  0
 28 45  1  0  0  0  0
 29 46  1  0  0  0  0
 29 47  1  0  0  0  0
 29 48  1  0  0  0  0
 30 49  1  0  0  0  0
 30 50  1  0  0  0  0
 30 51  1  0  0  0  0
M  CHG  1  31  -1
M  END
> <rseq>
1

> <mseq>
328

> <S>
-7.247756

> <rmsd_refine>
0.6186191

> <E_conf>
40.58978

> <E_score1>
-11.96001

> <E_refine>
-39.65829

> <E_score2>
-7.247756

>  <$File>
outputs/pdb_4j58_cleaned.pdb_2024_06_17__22_47_40_V2_BS398_MIN1_/SDF/sdf_db.sdf

> <Rec_index>
1

>  <PLIF_raw>
[[31,31,8,9,10,17,15,14],[823,823,954,954,954,954,954,954],[54,54,62,62,62,62,62,62],[2,7,10,10,10,10,10,10],[2.4,3.790817402,0.9,0.9,0.9,0.9,0.9,0.9]]

> <FP:PLIF>
6 19 1 16 21

>  <PLIF_ligidx>
[31,31,31,31,[8,9,10,17,15,14]]

$$$$
328
  MOE2022           3D

 60 63  0  0  1  0  0  0  0  0999 V2000
    3.5440   17.6470   19.7240 O   0  0  0  0  0  0  0  0  0  0  0  0
    2.6020   17.2770   19.0130 C   0  0  0  0  0  0  0  0  0  0  0  0
    1.5130   16.4630   19.4780 C   0  0  0  0  0  0  0  0  0  0  0  0
    2.5900   17.6550   17.6660 N   0  0  0  0  0  0  0  0  0  0  0  0
    0.5390   16.0920   18.6000 C   0  0  0  0  0  0  0  0  0  0  0  0
    1.5900   17.1710   16.8060 C   0  0  0  0  0  0  0  0  0  0  0  0
    0.6100   16.4520   17.2740 N   0  0  0  0  0  0  0  0  0  0  0  0
    1.7040   17.4570   15.3870 C   0  0  0  0  0  0  0  0  0  0  0  0
    3.6510   18.5820   17.1730 C   0  0  0  0  0  0  0  0  0  0  0  0
    1.4810   16.0370   20.9370 C   0  0  0  0  0  0  0  0  0  0  0  0
   -0.6480   15.2370   18.9920 C   0  0  0  0  0  0  0  0  0  0  0  0
    3.3620   20.0850   17.3430 C   0  0  1  0  0  0  0  0  0  0  0  0
    4.5800   20.8160   17.8270 C   0  0  0  0  0  0  0  0  0  0  0  0
    0.8960   18.4310   14.7820 C   0  0  0  0  0  0  0  0  0  0  0  0
    3.0960   20.8130   16.0130 C   0  0  0  0  0  0  0  0  0  0  0  0
    1.0410   18.7310   13.4330 C   0  0  0  0  0  0  0  0  0  0  0  0
    2.0040   18.0590   12.6740 C   0  0  0  0  0  0  0  0  0  0  0  0
    2.1260   18.3870   11.3490 O   0  0  0  0  0  0  0  0  0  0  0  0
    2.6260   16.7610   14.5850 C   0  0  0  0  0  0  0  0  0  0  0  0
    3.3660   15.7490   15.1250 O   0  0  0  0  0  0  0  0  0  0  0  0
    4.1710   21.7990   15.8020 O   0  0  0  0  0  0  0  0  0  0  0  0
    3.3920   18.7670   10.7540 C   0  0  0  0  0  0  0  0  0  0  0  0
    2.8030   17.0690   13.2410 C   0  0  0  0  0  0  0  0  0  0  0  0
    4.9840   21.7570   16.9030 C   0  0  0  0  0  0  0  0  0  0  0  0
    6.1050   22.5540   17.1040 C   0  0  0  0  0  0  0  0  0  0  0  0
    6.8370   22.3830   18.2790 C   0  0  0  0  0  0  0  0  0  0  0  0
    3.7860   17.8750    9.5660 C   0  0  0  0  0  0  0  0  0  0  0  0
    6.4400   21.4320   19.2240 C   0  0  0  0  0  0  0  0  0  0  0  0
    5.3060   20.6470   19.0020 C   0  0  0  0  0  0  0  0  0  0  0  0
    4.4910   16.5990    9.9710 C   0  0  0  0  0  0  0  0  0  0  0  0
    3.8480   15.4420   10.1720 C   0  0  0  0  0  0  0  0  0  0  0  0
    4.5540   14.1750   10.5980 C   0  0  0  0  0  0  0  0  0  0  0  0
    4.5690   18.3850   17.6980 H   0  0  0  0  0  0  0  0  0  0  0  0
    3.9360   18.3710   16.1530 H   0  0  0  0  0  0  0  0  0  0  0  0
    0.7040   16.5620   21.4760 H   0  0  0  0  0  0  0  0  0  0  0  0
    1.2960   14.9770   21.0270 H   0  0  0  0  0  0  0  0  0  0  0  0
    2.4150   16.2250   21.4480 H   0  0  0  0  0  0  0  0  0  0  0  0
   -1.0700   15.5410   19.9400 H   0  0  0  0  0  0  0  0  0  0  0  0
   -1.4420   15.2970   18.2600 H   0  0  0  0  0  0  0  0  0  0  0  0
   -0.3650   14.1960   19.0720 H   0  0  0  0  0  0  0  0  0  0  0  0
    2.5440   20.2430   18.0440 H   0  0  0  0  0  0  0  0  0  0  0  0
    0.1730   18.9470   15.3610 H   0  0  0  0  0  0  0  0  0  0  0  0
    3.0870   20.1170   15.1750 H   0  0  0  0  0  0  0  0  0  0  0  0
    2.1420   21.3370   16.0640 H   0  0  0  0  0  0  0  0  0  0  0  0
    0.4290   19.4680   12.9790 H   0  0  0  0  0  0  0  0  0  0  0  0
    3.0350   15.5170   16.0170 H   0  0  0  0  0  0  0  0  0  0  0  0
    3.2830   19.7930   10.4030 H   0  0  0  0  0  0  0  0  0  0  0  0
    4.1710   18.7550   11.5150 H   0  0  0  0  0  0  0  0  0  0  0  0
    3.5160   16.5460   12.6590 H   0  0  0  0  0  0  0  0  0  0  0  0
    6.3950   23.2720   16.3810 H   0  0  0  0  0  0  0  0  0  0  0  0
    7.6980   22.9740   18.4550 H   0  0  0  0  0  0  0  0  0  0  0  0
    2.9080   17.6570    8.9730 H   0  0  0  0  0  0  0  0  0  0  0  0
    4.4430   18.4350    8.9150 H   0  0  0  0  0  0  0  0  0  0  0  0
    7.0060   21.3040   20.1110 H   0  0  0  0  0  0  0  0  0  0  0  0
    5.0070   19.9260   19.7180 H   0  0  0  0  0  0  0  0  0  0  0  0
    5.5390   16.6740   10.0970 H   0  0  0  0  0  0  0  0  0  0  0  0
    2.7970   15.3660   10.0500 H   0  0  0  0  0  0  0  0  0  0  0  0
    5.6200   14.3190   10.7120 H   0  0  0  0  0  0  0  0  0  0  0  0
    4.1700   13.8260   11.5460 H   0  0  0  0  0  0  0  0  0  0  0  0
    4.4070   13.3850    9.8760 H   0  0  0  0  0  0  0  0  0  0  0  0
  1  2  2  0  0  0  0
  2  3  1  0  0  0  0
  2  4  1  0  0  0  0
  3  5  2  0  0  0  0
  3 10  1  0  0  0  0
  4  6  1  0  0  0  0
  4  9  1  0  0  0  0
  5  7  1  0  0  0  0
  5 11  1  0  0  0  0
  6  7  2  0  0  0  0
  6  8  1  0  0  0  0
  8 14  1  0  0  0  0
  8 19  2  0  0  0  0
  9 12  1  0  0  0  0
  9 33  1  0  0  0  0
  9 34  1  0  0  0  0
 10 35  1  0  0  0  0
 10 36  1  0  0  0  0
 10 37  1  0  0  0  0
 11 38  1  0  0  0  0
 11 39  1  0  0  0  0
 11 40  1  0  0  0  0
 12 13  1  0  0  0  0
 12 15  1  0  0  0  0
 12 41  1  0  0  0  0
 13 24  2  0  0  0  0
 13 29  1  0  0  0  0
 14 16  2  0  0  0  0
 14 42  1  0  0  0  0
 15 21  1  0  0  0  0
 15 43  1  0  0  0  0
 15 44  1  0  0  0  0
 16 17  1  0  0  0  0
 16 45  1  0  0  0  0
 17 18  1  0  0  0  0
 17 23  2  0  0  0  0
 18 22  1  0  0  0  0
 19 20  1  0  0  0  0
 19 23  1  0  0  0  0
 20 46  1  0  0  0  0
 21 24  1  0  0  0  0
 22 27  1  0  0  0  0
 22 47  1  0  0  0  0
 22 48  1  0  0  0  0
 23 49  1  0  0  0  0
 24 25  1  0  0  0  0
 25 26  2  0  0  0  0
 25 50  1  0  0  0  0
 26 28  1  0  0  0  0
 26 51  1  0  0  0  0
 27 30  1  0  0  0  0
 27 52  1  0  0  0  0
 27 53  1  0  0  0  0
 28 29  2  0  0  0  0
 28 54  1  0  0  0  0
 29 55  1  0  0  0  0
 30 31  2  0  0  0  0
 30 56  1  0  0  0  0
 31 32  1  0  0  0  0
 31 57  1  0  0  0  0
 32 58  1  0  0  0  0
 32 59  1  0  0  0  0
 32 60  1  0  0  0  0
M  END
> <rseq>
1

> <mseq>
329

> <S>
-6.402201

> <rmsd_refine>
0.7907354

> <E_conf>
-24.83037

> <E_score1>
-12.67784

> <E_refine>
-32.73351

> <E_score2>
-6.402201

>  <$File>
outputs/pdb_4j58_cleaned.pdb_2024_06_17__22_47_40_V2_BS398_MIN1_/SDF/sdf_db.sdf

> <Rec_index>
1

>  <PLIF_raw>
[[2,4,6,7,5,3],[954,954,954,954,954,954],[62,62,62,62,62,62],[10,10,10,10,10,10],[0.5,0.5,0.5,0.5,0.5,0.5]]

> <FP:PLIF>
21

>  <PLIF_ligidx>
[[2,4,6,7,5,3]]

$$$$
329
  MOE2022           3D

 59 61  0  0  1  0  0  0  0  0999 V2000
    7.0940   20.9790   19.4060 C   0  0  0  0  0  0  0  0  0  0  0  0
    6.2630   19.9050   19.1070 C   0  0  0  0  0  0  0  0  0  0  0  0
    4.9800   20.1410   18.6160 C   0  0  0  0  0  0  0  0  0  0  0  0
    4.2000   19.0380   18.2950 O   0  0  0  0  0  0  0  0  0  0  0  0
    3.0410   19.0390   17.3910 C   0  0  1  0  0  0  0  0  0  0  0  0
    4.5160   21.4490   18.4440 C   0  0  0  0  0  0  0  0  0  0  0  0
    6.6430   22.2830   19.2230 C   0  0  0  0  0  0  0  0  0  0  0  0
    5.3550   22.5170   18.7470 C   0  0  0  0  0  0  0  0  0  0  0  0
    3.4700   19.2080   15.9300 C   0  0  0  0  0  0  0  0  0  0  0  0
    4.3220   20.0510   15.6470 O   0  0  0  0  0  0  0  0  0  0  0  0
    2.1720   17.7910   17.6470 C   0  0  2  0  0  0  0  0  0  0  0  0
    2.8690   18.4830   14.9520 N   0  0  0  0  0  0  0  0  0  0  0  0
    1.0870   17.6390   16.5590 C   0  0  2  0  0  0  0  0  0  0  0  0
    1.8760   17.4190   15.2390 C   0  0  1  0  0  0  0  0  0  0  0  0
    1.6130   17.8530   18.9460 O   0  0  0  0  0  0  0  0  0  0  0  0
    3.2880   18.6330   13.5440 C   0  0  0  0  0  0  0  0  0  0  0  0
    0.2530   18.8640   16.4470 N   0  0  0  0  0  0  0  0  0  0  0  0
    0.1940   16.4150   16.8830 C   0  0  0  0  0  0  0  0  0  0  0  0
   -0.9770   16.3440   16.0900 O   0  0  0  0  0  0  0  0  0  0  0  0
    0.9840   17.2360   14.0920 O   0  0  0  0  0  0  0  0  0  0  0  0
    0.8920   15.8920   13.5310 C   0  0  0  0  0  0  0  0  0  0  0  0
    2.2040   15.3850   12.9710 C   0  0  0  0  0  0  0  0  0  0  0  0
    2.9950   14.7590   13.6530 O   0  0  0  0  0  0  0  0  0  0  0  0
    2.4890   15.6940   11.6590 N   0  0  0  0  0  0  0  0  0  0  0  0
    3.5830   15.1740   10.9120 C   0  0  0  0  0  0  0  0  0  0  0  0
    4.3120   16.0130   10.0540 C   0  0  0  0  0  0  0  0  0  0  0  0
    3.8910   13.8140   11.0290 C   0  0  0  0  0  0  0  0  0  0  0  0
    3.9590   17.4880    9.9070 C   0  0  0  0  0  0  0  0  0  0  0  0
    5.3810   15.4400    9.3530 C   0  0  0  0  0  0  0  0  0  0  0  0
    4.9650   13.2820   10.3270 C   0  0  0  0  0  0  0  0  0  0  0  0
    6.1390   16.1820    8.4950 O   0  0  0  0  0  0  0  0  0  0  0  0
    5.7170   14.0940    9.4880 C   0  0  0  0  0  0  0  0  0  0  0  0
    8.0750   20.8060   19.7650 H   0  0  0  0  0  0  0  0  0  0  0  0
    6.6100   18.9160   19.2400 H   0  0  0  0  0  0  0  0  0  0  0  0
    2.4300   19.8920   17.6520 H   0  0  0  0  0  0  0  0  0  0  0  0
    3.5400   21.6400   18.0840 H   0  0  0  0  0  0  0  0  0  0  0  0
    7.2820   23.0980   19.4460 H   0  0  0  0  0  0  0  0  0  0  0  0
    5.0150   23.5110   18.6100 H   0  0  0  0  0  0  0  0  0  0  0  0
    2.8290   16.9210   17.6080 H   0  0  0  0  0  0  0  0  0  0  0  0
    2.4280   16.4960   15.3550 H   0  0  0  0  0  0  0  0  0  0  0  0
    2.2430   18.2870   19.5280 H   0  0  0  0  0  0  0  0  0  0  0  0
    3.9960   19.4330   13.3880 H   0  0  0  0  0  0  0  0  0  0  0  0
    3.7490   17.7260   13.1820 H   0  0  0  0  0  0  0  0  0  0  0  0
    2.4460   18.8510   12.9020 H   0  0  0  0  0  0  0  0  0  0  0  0
    0.8370   19.6550   16.2190 H   0  0  0  0  0  0  0  0  0  0  0  0
   -0.4160   18.7330   15.7000 H   0  0  0  0  0  0  0  0  0  0  0  0
    0.7720   15.5080   16.7380 H   0  0  0  0  0  0  0  0  0  0  0  0
   -0.1260   16.4540   17.9230 H   0  0  0  0  0  0  0  0  0  0  0  0
   -1.5240   17.1070   16.2960 H   0  0  0  0  0  0  0  0  0  0  0  0
    0.5320   15.2190   14.2960 H   0  0  0  0  0  0  0  0  0  0  0  0
    0.1370   15.9170   12.7560 H   0  0  0  0  0  0  0  0  0  0  0  0
    1.8550   16.3520   11.1790 H   0  0  0  0  0  0  0  0  0  0  0  0
    3.3030   13.1840   11.6440 H   0  0  0  0  0  0  0  0  0  0  0  0
    4.3660   18.0560   10.7420 H   0  0  0  0  0  0  0  0  0  0  0  0
    4.3490   17.9130    8.9820 H   0  0  0  0  0  0  0  0  0  0  0  0
    2.8790   17.6310    9.8860 H   0  0  0  0  0  0  0  0  0  0  0  0
    5.2080   12.2550   10.4300 H   0  0  0  0  0  0  0  0  0  0  0  0
    5.8610   17.1190    8.5070 H   0  0  0  0  0  0  0  0  0  0  0  0
    6.5340   13.6900    8.9500 H   0  0  0  0  0  0  0  0  0  0  0  0
  1  2  1  0  0  0  0
  1  7  2  0  0  0  0
  1 33  1  0  0  0  0
  2  3  2  0  0  0  0
  2 34  1  0  0  0  0
  3  4  1  0  0  0  0
  3  6  1  0  0  0  0
  4  5  1  0  0  0  0
  5  9  1  0  0  0  0
  5 11  1  0  0  0  0
  5 35  1  0  0  0  0
  6  8  2  0  0  0  0
  6 36  1  0  0  0  0
  7  8  1  0  0  0  0
  7 37  1  0  0  0  0
  8 38  1  0  0  0  0
  9 10  2  0  0  0  0
  9 12  1  0  0  0  0
 11 13  1  0  0  0  0
 11 15  1  0  0  0  0
 11 39  1  0  0  0  0
 12 14  1  0  0  0  0
 12 16  1  0  0  0  0
 13 14  1  0  0  0  0
 13 17  1  0  0  0  0
 13 18  1  0  0  0  0
 14 20  1  0  0  0  0
 14 40  1  0  0  0  0
 15 41  1  0  0  0  0
 16 42  1  0  0  0  0
 16 43  1  0  0  0  0
 16 44  1  0  0  0  0
 17 45  1  0  0  0  0
 17 46  1  0  0  0  0
 18 19  1  0  0  0  0
 18 47  1  0  0  0  0
 18 48  1  0  0  0  0
 19 49  1  0  0  0  0
 20 21  1  0  0  0  0
 21 22  1  0  0  0  0
 21 50  1  0  0  0  0
 21 51  1  0  0  0  0
 22 23  2  0  0  0  0
 22 24  1  0  0  0  0
 24 25  1  0  0  0  0
 24 52  1  0  0  0  0
 25 26  2  0  0  0  0
 25 27  1  0  0  0  0
 26 28  1  0  0  0  0
 26 29  1  0  0  0  0
 27 30  2  0  0  0  0
 27 53  1  0  0  0  0
 28 54  1  0  0  0  0
 28 55  1  0  0  0  0
 28 56  1  0  0  0  0
 29 31  1  0  0  0  0
 29 32  2  0  0  0  0
 30 32  1  0  0  0  0
 30 57  1  0  0  0  0
 31 58  1  0  0  0  0
 32 59  1  0  0  0  0
M  END
> <rseq>
1

> <mseq>
330

> <S>
-6.45524

> <rmsd_refine>
1.391315

> <E_conf>
72.24658

> <E_score1>
-11.17685

> <E_refine>
-37.48552

> <E_score2>
-6.45524

>  <$File>
outputs/pdb_4j58_cleaned.pdb_2024_06_17__22_47_40_V2_BS398_MIN1_/SDF/sdf_db.sdf

> <Rec_index>
1

>  <PLIF_raw>
[[25,26,29,32,30,27],[823,823,823,823,823,823],[54,54,54,54,54,54],[10,10,10,10,10,10],[0.5,0.5,0.5,0.5,0.5,0.5]]

> <FP:PLIF>
2

>  <PLIF_ligidx>
[[25,26,29,32,30,27]]

$$$$
330
  MOE2022           3D

 56 58  0  0  1  0  0  0  0  0999 V2000
    6.2690   14.0690   10.0860 C   0  0  0  0  0  0  0  0  0  0  0  0
    6.0090   15.4130    9.8370 C   0  0  0  0  0  0  0  0  0  0  0  0
    4.7240   15.9140    9.9940 C   0  0  0  0  0  0  0  0  0  0  0  0
    3.6830   15.0750   10.4070 C   0  0  0  0  0  0  0  0  0  0  0  0
    3.9490   13.7170   10.6270 C   0  0  0  0  0  0  0  0  0  0  0  0
    5.2380   13.2200   10.4750 C   0  0  0  0  0  0  0  0  0  0  0  0
    2.3470   15.6250   10.6130 C   0  0  0  0  0  0  0  0  0  0  0  0
    1.8110   15.6700   11.8940 N   0  0  0  0  0  0  0  0  0  0  0  0
    1.6920   16.0790    9.6790 O   0  0  0  0  0  0  0  0  0  0  0  0
    2.6420   15.4050   13.0860 C   0  0  0  0  0  0  0  0  0  0  0  0
    0.5700   16.4360   12.1590 C   0  0  0  0  0  0  0  0  0  0  0  0
    1.8230   15.0020   14.3220 C   0  0  0  0  0  0  0  0  0  0  0  0
   -0.1670   16.0000   13.4400 C   0  0  0  0  0  0  0  0  0  0  0  0
    0.7230   15.9330   14.6150 N   0  0  0  0  0  0  0  0  0  0  0  0
    0.9820   17.1430   15.3250 C   0  0  0  0  0  0  0  0  0  0  0  0
    2.2870   17.5180   15.6880 C   0  0  0  0  0  0  0  0  0  0  0  0
   -0.0900   17.9720   15.6850 C   0  0  0  0  0  0  0  0  0  0  0  0
    2.5160   18.7120   16.3610 C   0  0  0  0  0  0  0  0  0  0  0  0
    3.9330   19.1100   16.7200 C   0  0  0  0  0  0  0  0  0  0  0  0
    4.1980   19.1650   18.1660 N   0  0  0  0  0  0  0  0  0  0  0  0
    0.1450   19.1590   16.3670 C   0  0  0  0  0  0  0  0  0  0  0  0
    1.4430   19.5340   16.7010 C   0  0  0  0  0  0  0  0  0  0  0  0
    3.5710   18.1570   18.9160 O   0  0  0  0  0  0  0  0  0  0  0  0
    5.0680   20.0200   18.8060 C   0  0  0  0  0  0  0  0  0  0  0  0
    5.2290   19.9060   20.0180 O   0  0  0  0  0  0  0  0  0  0  0  0
    5.8350   21.0550   17.9880 C   0  0  1  0  0  0  0  0  0  0  0  0
    6.3340   22.2700   18.7930 C   0  0  1  0  0  0  0  0  0  0  0  0
    6.9140   20.4270   17.2480 O   0  0  0  0  0  0  0  0  0  0  0  0
    7.3750   21.9080   19.7480 O   0  0  0  0  0  0  0  0  0  0  0  0
    6.7720   23.3990   17.8820 C   0  0  0  0  0  0  0  0  0  0  0  0
    5.9480   24.3190   17.6870 O   0  5  0  0  0  0  0  0  0  0  0  0
    7.8900   23.3120   17.3270 O   0  0  0  0  0  0  0  0  0  0  0  0
    7.2520   13.6890    9.9820 H   0  0  0  0  0  0  0  0  0  0  0  0
    6.7890   16.0560    9.5270 H   0  0  0  0  0  0  0  0  0  0  0  0
    4.5310   16.9400    9.8050 H   0  0  0  0  0  0  0  0  0  0  0  0
    3.1660   13.0670   10.9250 H   0  0  0  0  0  0  0  0  0  0  0  0
    5.4360   12.1960   10.6600 H   0  0  0  0  0  0  0  0  0  0  0  0
    3.3640   14.6230   12.9090 H   0  0  0  0  0  0  0  0  0  0  0  0
    3.2220   16.2900   13.3070 H   0  0  0  0  0  0  0  0  0  0  0  0
    0.8160   17.4860   12.2390 H   0  0  0  0  0  0  0  0  0  0  0  0
   -0.1150   16.3560   11.3260 H   0  0  0  0  0  0  0  0  0  0  0  0
    1.4110   14.0160   14.1570 H   0  0  0  0  0  0  0  0  0  0  0  0
    2.4730   14.8970   15.1760 H   0  0  0  0  0  0  0  0  0  0  0  0
   -1.0120   16.6510   13.6100 H   0  0  0  0  0  0  0  0  0  0  0  0
   -0.5990   15.0220   13.2740 H   0  0  0  0  0  0  0  0  0  0  0  0
    3.1140   16.9040   15.4510 H   0  0  0  0  0  0  0  0  0  0  0  0
   -1.0850   17.6940   15.4540 H   0  0  0  0  0  0  0  0  0  0  0  0
    4.6320   18.4220   16.2670 H   0  0  0  0  0  0  0  0  0  0  0  0
    4.1390   20.0560   16.2450 H   0  0  0  0  0  0  0  0  0  0  0  0
   -0.6680   19.7820   16.6380 H   0  0  0  0  0  0  0  0  0  0  0  0
    1.6110   20.4420   17.2210 H   0  0  0  0  0  0  0  0  0  0  0  0
    3.4120   18.5510   19.7990 H   0  0  0  0  0  0  0  0  0  0  0  0
    5.1650   21.4540   17.2410 H   0  0  0  0  0  0  0  0  0  0  0  0
    5.4920   22.6240   19.3710 H   0  0  0  0  0  0  0  0  0  0  0  0
    7.6740   20.2820   17.8370 H   0  0  0  0  0  0  0  0  0  0  0  0
    8.2430   21.9490   19.3110 H   0  0  0  0  0  0  0  0  0  0  0  0
  1  2  2  0  0  0  0
  1  6  1  0  0  0  0
  1 33  1  0  0  0  0
  2  3  1  0  0  0  0
  2 34  1  0  0  0  0
  3  4  2  0  0  0  0
  3 35  1  0  0  0  0
  4  5  1  0  0  0  0
  4  7  1  0  0  0  0
  5  6  2  0  0  0  0
  5 36  1  0  0  0  0
  6 37  1  0  0  0  0
  7  8  1  0  0  0  0
  7  9  2  0  0  0  0
  8 10  1  0  0  0  0
  8 11  1  0  0  0  0
 10 12  1  0  0  0  0
 10 38  1  0  0  0  0
 10 39  1  0  0  0  0
 11 13  1  0  0  0  0
 11 40  1  0  0  0  0
 11 41  1  0  0  0  0
 12 14  1  0  0  0  0
 12 42  1  0  0  0  0
 12 43  1  0  0  0  0
 13 14  1  0  0  0  0
 13 44  1  0  0  0  0
 13 45  1  0  0  0  0
 14 15  1  0  0  0  0
 15 16  1  0  0  0  0
 15 17  2  0  0  0  0
 16 18  2  0  0  0  0
 16 46  1  0  0  0  0
 17 21  1  0  0  0  0
 17 47  1  0  0  0  0
 18 19  1  0  0  0  0
 18 22  1  0  0  0  0
 19 20  1  0  0  0  0
 19 48  1  0  0  0  0
 19 49  1  0  0  0  0
 20 23  1  0  0  0  0
 20 24  1  0  0  0  0
 21 22  2  0  0  0  0
 21 50  1  0  0  0  0
 22 51  1  0  0  0  0
 23 52  1  0  0  0  0
 24 25  2  0  0  0  0
 24 26  1  0  0  0  0
 26 27  1  0  0  0  0
 26 28  1  0  0  0  0
 26 53  1  0  0  0  0
 27 29  1  0  0  0  0
 27 30  1  0  0  0  0
 27 54  1  0  0  0  0
 28 55  1  0  0  0  0
 29 56  1  0  0  0  0
 30 31  1  0  0  0  0
 30 32  2  0  0  0  0
M  CHG  1  31  -1
M  END
> <rseq>
1

> <mseq>
331

> <S>
-6.549489

> <rmsd_refine>
1.499956

> <E_conf>
82.7245

> <E_score1>
-9.896754

> <E_refine>
-33.98819

> <E_score2>
-6.549489

>  <$File>
outputs/pdb_4j58_cleaned.pdb_2024_06_17__22_47_40_V2_BS398_MIN1_/SDF/sdf_db.sdf

> <Rec_index>
1

>  <PLIF_raw>
[[23,25],[1504,1499],[101,101],[3,4],[1.1,2.7]]

> <FP:PLIF>
8 11 12

>  <PLIF_ligidx>
[23,25,25]

$$$$
331
  MOE2022           3D

 59 61  0  0  1  0  0  0  0  0999 V2000
    2.0870   16.3660   20.5380 C   0  0  0  0  0  0  0  0  0  0  0  0
    0.7690   15.9300   20.5680 C   0  0  0  0  0  0  0  0  0  0  0  0
    2.6160   16.9030   19.3690 C   0  0  0  0  0  0  0  0  0  0  0  0
   -0.0170   16.0150   19.4240 C   0  0  0  0  0  0  0  0  0  0  0  0
    0.5120   16.5510   18.2540 C   0  0  0  0  0  0  0  0  0  0  0  0
    1.8300   17.0060   18.2170 C   0  0  0  0  0  0  0  0  0  0  0  0
    2.3780   17.5820   16.9170 C   0  0  1  0  0  0  0  0  0  0  0  0
    3.4040   18.6080   17.1590 N   0  0  0  0  0  0  0  0  0  0  0  0
    2.8620   16.4830   15.9740 C   0  0  0  0  0  0  0  0  0  0  0  0
    3.9470   19.4190   16.1900 C   0  0  0  0  0  0  0  0  0  0  0  0
    2.3270   16.4650   14.7430 N   0  0  0  0  0  0  0  0  0  0  0  0
    3.4610   19.3570   15.0610 O   0  0  0  0  0  0  0  0  0  0  0  0
    5.0800   20.2840   16.5460 C   0  0  0  0  0  0  0  0  0  0  0  0
    3.7370   15.6870   16.3050 O   0  0  0  0  0  0  0  0  0  0  0  0
    2.7300   15.5460   13.6840 C   0  0  1  0  0  0  0  0  0  0  0  0
    1.6620   14.4940   13.3910 C   0  0  0  0  0  0  0  0  0  0  0  0
    2.9620   16.2410   12.3380 C   0  0  0  0  0  0  0  0  0  0  0  0
    5.8170   20.0490   17.7240 C   0  0  0  0  0  0  0  0  0  0  0  0
    1.8460   14.1620   11.9110 C   0  0  0  0  0  0  0  0  0  0  0  0
    5.5050   21.3440   15.7140 C   0  0  0  0  0  0  0  0  0  0  0  0
    2.4570   15.3540   11.2350 N   0  3  2  0  0  0  0  0  0  0  0  0
    6.9490   20.7960   18.0380 C   0  0  0  0  0  0  0  0  0  0  0  0
    4.8400   21.6560   14.5650 O   0  0  0  0  0  0  0  0  0  0  0  0
    3.5000   15.0370   10.1950 C   0  0  0  0  0  0  0  0  0  0  0  0
    7.3460   21.8180   17.1690 C   0  0  0  0  0  0  0  0  0  0  0  0
    8.4600   22.5550   17.4400 O   0  0  0  0  0  0  0  0  0  0  0  0
    4.6370   14.1080   10.6290 C   0  0  0  0  0  0  0  0  0  0  0  0
    6.6270   22.1070   16.0160 C   0  0  0  0  0  0  0  0  0  0  0  0
    5.9180   14.4320    9.8830 C   0  0  0  0  0  0  0  0  0  0  0  0
    7.7380   20.4850   19.2930 C   0  0  0  0  0  0  0  0  0  0  0  0
    6.3120   13.6000    9.0390 O   0  5  0  0  0  0  0  0  0  0  0  0
    6.4550   15.5270   10.1580 O   0  0  0  0  0  0  0  0  0  0  0  0
    2.6900   16.2910   21.4060 H   0  0  0  0  0  0  0  0  0  0  0  0
    0.3630   15.5370   21.4600 H   0  0  0  0  0  0  0  0  0  0  0  0
    3.6210   17.2300   19.3670 H   0  0  0  0  0  0  0  0  0  0  0  0
   -1.0210   15.6760   19.4430 H   0  0  0  0  0  0  0  0  0  0  0  0
   -0.0960   16.6110   17.3880 H   0  0  0  0  0  0  0  0  0  0  0  0
    1.5530   18.0880   16.4320 H   0  0  0  0  0  0  0  0  0  0  0  0
    3.7640   18.6810   18.1210 H   0  0  0  0  0  0  0  0  0  0  0  0
    1.6290   17.1570   14.5140 H   0  0  0  0  0  0  0  0  0  0  0  0
    3.6560   15.0310   13.9400 H   0  0  0  0  0  0  0  0  0  0  0  0
    1.7920   13.6110   14.0130 H   0  0  0  0  0  0  0  0  0  0  0  0
    0.6670   14.9180   13.5360 H   0  0  0  0  0  0  0  0  0  0  0  0
    2.4490   17.1940   12.3440 H   0  0  0  0  0  0  0  0  0  0  0  0
    4.0100   16.4910   12.2370 H   0  0  0  0  0  0  0  0  0  0  0  0
    5.5250   19.2720   18.3810 H   0  0  0  0  0  0  0  0  0  0  0  0
    2.4920   13.2960   11.8410 H   0  0  0  0  0  0  0  0  0  0  0  0
    0.9090   13.8480   11.4710 H   0  0  0  0  0  0  0  0  0  0  0  0
    1.7120   15.8580   10.7730 H   0  0  0  0  0  0  0  0  0  0  0  0
    4.0610   21.0700   14.4590 H   0  0  0  0  0  0  0  0  0  0  0  0
    3.0550   14.6160    9.3030 H   0  0  0  0  0  0  0  0  0  0  0  0
    3.9530   15.9530    9.8380 H   0  0  0  0  0  0  0  0  0  0  0  0
    8.9020   22.2290   18.2480 H   0  0  0  0  0  0  0  0  0  0  0  0
    4.8300   14.2200   11.6920 H   0  0  0  0  0  0  0  0  0  0  0  0
    4.3490   13.0730   10.4420 H   0  0  0  0  0  0  0  0  0  0  0  0
    6.9340   22.8940   15.3750 H   0  0  0  0  0  0  0  0  0  0  0  0
    8.7470   20.1620   19.0310 H   0  0  0  0  0  0  0  0  0  0  0  0
    7.8070   21.3710   19.9240 H   0  0  0  0  0  0  0  0  0  0  0  0
    7.2690   19.6910   19.8730 H   0  0  0  0  0  0  0  0  0  0  0  0
  1  2  2  0  0  0  0
  1  3  1  0  0  0  0
  1 33  1  0  0  0  0
  2  4  1  0  0  0  0
  2 34  1  0  0  0  0
  3  6  2  0  0  0  0
  3 35  1  0  0  0  0
  4  5  2  0  0  0  0
  4 36  1  0  0  0  0
  5  6  1  0  0  0  0
  5 37  1  0  0  0  0
  6  7  1  0  0  0  0
  7  8  1  0  0  0  0
  7  9  1  0  0  0  0
  7 38  1  0  0  0  0
  8 10  1  0  0  0  0
  8 39  1  0  0  0  0
  9 11  1  0  0  0  0
  9 14  2  0  0  0  0
 10 12  2  0  0  0  0
 10 13  1  0  0  0  0
 11 15  1  0  0  0  0
 11 40  1  0  0  0  0
 13 18  2  0  0  0  0
 13 20  1  0  0  0  0
 15 16  1  0  0  0  0
 15 17  1  0  0  0  0
 15 41  1  0  0  0  0
 16 19  1  0  0  0  0
 16 42  1  0  0  0  0
 16 43  1  0  0  0  0
 17 21  1  0  0  0  0
 17 44  1  0  0  0  0
 17 45  1  0  0  0  0
 18 22  1  0  0  0  0
 18 46  1  0  0  0  0
 19 21  1  0  0  0  0
 19 47  1  0  0  0  0
 19 48  1  0  0  0  0
 20 23  1  0  0  0  0
 20 28  2  0  0  0  0
 21 24  1  0  0  0  0
 21 49  1  0  0  0  0
 22 25  2  0  0  0  0
 22 30  1  0  0  0  0
 23 50  1  0  0  0  0
 24 27  1  0  0  0  0
 24 51  1  0  0  0  0
 24 52  1  0  0  0  0
 25 26  1  0  0  0  0
 25 28  1  0  0  0  0
 26 53  1  0  0  0  0
 27 29  1  0  0  0  0
 27 54  1  0  0  0  0
 27 55  1  0  0  0  0
 28 56  1  0  0  0  0
 29 31  1  0  0  0  0
 29 32  2  0  0  0  0
 30 57  1  0  0  0  0
 30 58  1  0  0  0  0
 30 59  1  0  0  0  0
M  CHG  1  21   1
M  CHG  1  31  -1
M  END
> <rseq>
1

> <mseq>
332

> <S>
-7.603761

> <rmsd_refine>
1.685323

> <E_conf>
-133.3944

> <E_score1>
-11.17611

> <E_refine>
-44.04291

> <E_score2>
-7.603761

>  <$File>
outputs/pdb_4j58_cleaned.pdb_2024_06_17__22_47_40_V2_BS398_MIN1_/SDF/sdf_db.sdf

> <Rec_index>
1

>  <PLIF_raw>
[[14,32,32,1,3,6,5,4,2],[954,823,823,1519,1519,1519,1519,1519,1519],[62,54,54,102,102,102,102,102,102],[2,2,7,10,10,10,10,10,10],[1.3,5.7,3.99106589,0.5,0.5,0.5,0.5,0.5,0.5]]

> <FP:PLIF>
6 19 1 16 20 22

>  <PLIF_ligidx>
[32,32,32,32,14,[1,3,6,5,4,2]]

$$$$
332
  MOE2022           3D

 61 63  0  0  1  0  0  0  0  0999 V2000
    8.6060   21.0230   18.8630 C   0  0  0  0  0  0  0  0  0  0  0  0
    7.6100   21.2550   17.7210 C   0  0  0  0  0  0  0  0  0  0  0  0
    7.8080   22.6710   17.1620 C   0  0  0  0  0  0  0  0  0  0  0  0
    6.1790   21.0410   18.2540 C   0  0  0  0  0  0  0  0  0  0  0  0
    5.1000   21.0830   17.1720 C   0  0  0  0  0  0  0  0  0  0  0  0
    7.8980   20.3340   16.6940 O   0  0  0  0  0  0  0  0  0  0  0  0
    4.7260   19.9050   16.6620 N   0  0  0  0  0  0  0  0  0  0  0  0
    4.6020   22.1540   16.8350 O   0  0  0  0  0  0  0  0  0  0  0  0
    3.5890   19.7230   15.7570 C   0  0  2  0  0  0  0  0  0  0  0  0
    2.2430   20.0080   16.4150 C   0  0  0  0  0  0  0  0  0  0  0  0
    3.5050   18.2910   15.2900 C   0  0  0  0  0  0  0  0  0  0  0  0
    1.6770   18.9870   17.1060 N   0  0  0  0  0  0  0  0  0  0  0  0
    1.6450   21.0620   16.1980 O   0  0  0  0  0  0  0  0  0  0  0  0
    0.2310   18.9210   17.2920 C   0  0  0  0  0  0  0  0  0  0  0  0
   -0.4950   18.2600   16.1140 C   0  0  0  0  0  0  0  0  0  0  0  0
    3.2820   17.3250   16.2690 N   0  0  0  0  0  0  0  0  0  0  0  0
    2.4240   17.7480   17.3840 C   0  0  1  0  0  0  0  0  0  0  0  0
    2.9930   16.0650   15.5560 C   0  0  0  0  0  0  0  0  0  0  0  0
    3.0720   16.4000   14.0820 C   0  0  0  0  0  0  0  0  0  0  0  0
    3.2080   17.9210   18.5620 O   0  0  0  0  0  0  0  0  0  0  0  0
    2.7920   15.5470   13.0750 C   0  0  0  0  0  0  0  0  0  0  0  0
    3.4190   17.7920   14.0450 C   0  0  0  0  0  0  0  0  0  0  0  0
    2.7530   15.9350   11.6110 C   0  0  0  0  0  0  0  0  0  0  0  0
    3.6780   15.1020   10.7450 C   0  0  0  0  0  0  0  0  0  0  0  0
    3.4470   13.7280   10.6430 C   0  0  0  0  0  0  0  0  0  0  0  0
    4.2660   12.9450    9.8360 C   0  0  0  0  0  0  0  0  0  0  0  0
    4.7430   15.6630   10.0210 C   0  0  0  0  0  0  0  0  0  0  0  0
    4.0110   11.6050    9.7180 O   0  0  0  0  0  0  0  0  0  0  0  0
    5.3310   13.5170    9.1380 C   0  0  0  0  0  0  0  0  0  0  0  0
    4.9830   17.0090   10.0650 O   0  0  0  0  0  0  0  0  0  0  0  0
    6.1320   12.7350    8.3560 O   0  0  0  0  0  0  0  0  0  0  0  0
    5.5790   14.8820    9.2230 C   0  0  0  0  0  0  0  0  0  0  0  0
    8.5300   19.9950   19.2200 H   0  0  0  0  0  0  0  0  0  0  0  0
    9.6250   21.2010   18.5200 H   0  0  0  0  0  0  0  0  0  0  0  0
    8.3920   21.7040   19.6860 H   0  0  0  0  0  0  0  0  0  0  0  0
    7.1620   22.8320   16.2990 H   0  0  0  0  0  0  0  0  0  0  0  0
    7.5740   23.4120   17.9270 H   0  0  0  0  0  0  0  0  0  0  0  0
    8.8440   22.7990   16.8480 H   0  0  0  0  0  0  0  0  0  0  0  0
    6.1280   20.0740   18.7590 H   0  0  0  0  0  0  0  0  0  0  0  0
    5.9530   21.8070   18.9960 H   0  0  0  0  0  0  0  0  0  0  0  0
    7.9290   19.4510   17.0730 H   0  0  0  0  0  0  0  0  0  0  0  0
    5.1640   19.0650   17.0090 H   0  0  0  0  0  0  0  0  0  0  0  0
    3.7130   20.3750   14.9030 H   0  0  0  0  0  0  0  0  0  0  0  0
    0.0190   18.3670   18.1940 H   0  0  0  0  0  0  0  0  0  0  0  0
   -0.1760   19.9110   17.4460 H   0  0  0  0  0  0  0  0  0  0  0  0
   -0.3170   18.8190   15.1950 H   0  0  0  0  0  0  0  0  0  0  0  0
   -0.1490   17.2360   15.9700 H   0  0  0  0  0  0  0  0  0  0  0  0
   -1.5690   18.2380   16.3000 H   0  0  0  0  0  0  0  0  0  0  0  0
    1.7200   16.9530   17.6000 H   0  0  0  0  0  0  0  0  0  0  0  0
    3.7250   15.3170   15.8240 H   0  0  0  0  0  0  0  0  0  0  0  0
    2.0120   15.6870   15.8090 H   0  0  0  0  0  0  0  0  0  0  0  0
    2.7130   18.4640   19.1960 H   0  0  0  0  0  0  0  0  0  0  0  0
    2.5390   14.5380   13.2810 H   0  0  0  0  0  0  0  0  0  0  0  0
    3.5170   18.3690   13.1630 H   0  0  0  0  0  0  0  0  0  0  0  0
    1.7420   15.8000   11.2520 H   0  0  0  0  0  0  0  0  0  0  0  0
    2.9370   16.9900   11.4850 H   0  0  0  0  0  0  0  0  0  0  0  0
    2.6460   13.2780   11.1710 H   0  0  0  0  0  0  0  0  0  0  0  0
    4.6820   11.2000    9.1330 H   0  0  0  0  0  0  0  0  0  0  0  0
    5.6890   17.2610    9.4360 H   0  0  0  0  0  0  0  0  0  0  0  0
    6.8200   13.2860    7.9360 H   0  0  0  0  0  0  0  0  0  0  0  0
    6.3790   15.3220    8.6880 H   0  0  0  0  0  0  0  0  0  0  0  0
  1  2  1  0  0  0  0
  1 33  1  0  0  0  0
  1 34  1  0  0  0  0
  1 35  1  0  0  0  0
  2  3  1  0  0  0  0
  2  4  1  0  0  0  0
  2  6  1  0  0  0  0
  3 36  1  0  0  0  0
  3 37  1  0  0  0  0
  3 38  1  0  0  0  0
  4  5  1  0  0  0  0
  4 39  1  0  0  0  0
  4 40  1  0  0  0  0
  5  7  1  0  0  0  0
  5  8  2  0  0  0  0
  6 41  1  0  0  0  0
  7  9  1  0  0  0  0
  7 42  1  0  0  0  0
  9 10  1  0  0  0  0
  9 11  1  0  0  0  0
  9 43  1  0  0  0  0
 10 12  1  0  0  0  0
 10 13  2  0  0  0  0
 11 16  1  0  0  0  0
 11 22  2  0  0  0  0
 12 14  1  0  0  0  0
 12 17  1  0  0  0  0
 14 15  1  0  0  0  0
 14 44  1  0  0  0  0
 14 45  1  0  0  0  0
 15 46  1  0  0  0  0
 15 47  1  0  0  0  0
 15 48  1  0  0  0  0
 16 17  1  0  0  0  0
 16 18  1  0  0  0  0
 17 20  1  0  0  0  0
 17 49  1  0  0  0  0
 18 19  1  0  0  0  0
 18 50  1  0  0  0  0
 18 51  1  0  0  0  0
 19 21  2  0  0  0  0
 19 22  1  0  0  0  0
 20 52  1  0  0  0  0
 21 23  1  0  0  0  0
 21 53  1  0  0  0  0
 22 54  1  0  0  0  0
 23 24  1  0  0  0  0
 23 55  1  0  0  0  0
 23 56  1  0  0  0  0
 24 25  1  0  0  0  0
 24 27  2  0  0  0  0
 25 26  2  0  0  0  0
 25 57  1  0  0  0  0
 26 28  1  0  0  0  0
 26 29  1  0  0  0  0
 27 30  1  0  0  0  0
 27 32  1  0  0  0  0
 28 58  1  0  0  0  0
 29 31  1  0  0  0  0
 29 32  2  0  0  0  0
 30 59  1  0  0  0  0
 31 60  1  0  0  0  0
 32 61  1  0  0  0  0
M  END
> <rseq>
1

> <mseq>
333

> <S>
-6.818259

> <rmsd_refine>
1.290334

> <E_conf>
-179.7478

> <E_score1>
-10.7907

> <E_refine>
-40.24887

> <E_score2>
-6.818259

>  <$File>
outputs/pdb_4j58_cleaned.pdb_2024_06_17__22_47_40_V2_BS398_MIN1_/SDF/sdf_db.sdf

> <Rec_index>
1

>  <PLIF_raw>
[[7,20,30],[953,1504,2222],[62,101,148],[1,3,3],[0.5,0.6,1]]

> <FP:PLIF>
28 8 39

>  <PLIF_ligidx>
[7,20,30]

$$$$
333
  MOE2022           3D

 50 54  0  0  0  0  0  0  0  0999 V2000
    7.1750   20.8560   19.0710 C   0  0  0  0  0  0  0  0  0  0  0  0
    6.2230   19.8790   18.7950 C   0  0  0  0  0  0  0  0  0  0  0  0
    4.9950   20.2090   18.2050 C   0  0  0  0  0  0  0  0  0  0  0  0
    4.0050   19.1690   17.9000 C   0  0  0  0  0  0  0  0  0  0  0  0
    3.4080   19.0700   16.6370 C   0  0  0  0  0  0  0  0  0  0  0  0
    3.5990   18.2800   18.8970 C   0  0  0  0  0  0  0  0  0  0  0  0
    2.5590   17.3630   18.7000 C   0  0  0  0  0  0  0  0  0  0  0  0
    2.3850   18.1530   16.4060 C   0  0  0  0  0  0  0  0  0  0  0  0
    2.0640   16.5460   19.8040 C   0  0  0  0  0  0  0  0  0  0  0  0
    1.9720   17.3040   17.4280 C   0  0  0  0  0  0  0  0  0  0  0  0
    1.6820   18.1130   15.0650 C   0  0  0  0  0  0  0  0  0  0  0  0
    0.8690   16.0010   19.8310 N   0  0  0  0  0  0  0  0  0  0  0  0
    2.7430   16.3040   20.9040 N   0  0  0  0  0  0  0  0  0  0  0  0
    1.9370   15.5820   21.6530 N   0  5  0  0  0  0  0  0  0  0  0  0
    2.3180   17.2390   14.0690 N   0  0  0  0  0  0  0  0  0  0  0  0
    4.7460   21.5700   17.9510 C   0  0  0  0  0  0  0  0  0  0  0  0
    3.0590   17.7640   13.0220 C   0  0  0  0  0  0  0  0  0  0  0  0
    0.7960   15.4030   20.9990 N   0  0  0  0  0  0  0  0  0  0  0  0
    3.4180   16.8980   11.8930 C   0  0  0  0  0  0  0  0  0  0  0  0
    3.5400   21.9740   17.4580 O   0  0  0  0  0  0  0  0  0  0  0  0
    3.4010   18.9450   13.0760 O   0  0  0  0  0  0  0  0  0  0  0  0
    3.8740   17.4650   10.6930 C   0  0  0  0  0  0  0  0  0  0  0  0
    6.9160   22.1910   18.7760 C   0  0  0  0  0  0  0  0  0  0  0  0
    5.6970   22.5530   18.2180 C   0  0  0  0  0  0  0  0  0  0  0  0
    4.2430   16.6440    9.6320 C   0  0  0  0  0  0  0  0  0  0  0  0
    4.6770   17.2110    8.4700 O   0  0  0  0  0  0  0  0  0  0  0  0
    3.3270   15.4980   12.0060 C   0  0  0  0  0  0  0  0  0  0  0  0
    2.8280   14.9050   13.3120 C   0  0  0  0  0  0  0  0  0  0  0  0
    1.8550   15.8470   14.0280 C   0  0  0  0  0  0  0  0  0  0  0  0
    3.7280   14.7010   10.9260 C   0  0  0  0  0  0  0  0  0  0  0  0
    3.6990   13.3380   11.0110 O   0  0  0  0  0  0  0  0  0  0  0  0
    4.1790   15.2590    9.7340 C   0  0  0  0  0  0  0  0  0  0  0  0
    8.1020   20.5820   19.5060 H   0  0  0  0  0  0  0  0  0  0  0  0
    6.4350   18.8740   19.0380 H   0  0  0  0  0  0  0  0  0  0  0  0
    3.7210   19.7150   15.8560 H   0  0  0  0  0  0  0  0  0  0  0  0
    4.0590   18.3370   19.8470 H   0  0  0  0  0  0  0  0  0  0  0  0
    1.1880   16.6140   17.2500 H   0  0  0  0  0  0  0  0  0  0  0  0
    0.6570   17.7990   15.2110 H   0  0  0  0  0  0  0  0  0  0  0  0
    1.5880   19.1200   14.6830 H   0  0  0  0  0  0  0  0  0  0  0  0
    2.9300   21.2110   17.4010 H   0  0  0  0  0  0  0  0  0  0  0  0
    3.9380   18.5180   10.5870 H   0  0  0  0  0  0  0  0  0  0  0  0
    7.6470   22.9300   18.9800 H   0  0  0  0  0  0  0  0  0  0  0  0
    5.4880   23.5690   18.0010 H   0  0  0  0  0  0  0  0  0  0  0  0
    4.8690   16.5250    7.8010 H   0  0  0  0  0  0  0  0  0  0  0  0
    2.3220   13.9550   13.1410 H   0  0  0  0  0  0  0  0  0  0  0  0
    3.6830   14.7360   13.9640 H   0  0  0  0  0  0  0  0  0  0  0  0
    1.6770   15.4810   15.0300 H   0  0  0  0  0  0  0  0  0  0  0  0
    0.8960   15.8130   13.5270 H   0  0  0  0  0  0  0  0  0  0  0  0
    3.5340   13.0490   11.9300 H   0  0  0  0  0  0  0  0  0  0  0  0
    4.4690   14.6410    8.9240 H   0  0  0  0  0  0  0  0  0  0  0  0
  1  2  1  0  0  0  0
  1 23  2  0  0  0  0
  1 33  1  0  0  0  0
  2  3  2  0  0  0  0
  2 34  1  0  0  0  0
  3  4  1  0  0  0  0
  3 16  1  0  0  0  0
  4  5  1  0  0  0  0
  4  6  2  0  0  0  0
  5  8  2  0  0  0  0
  5 35  1  0  0  0  0
  6  7  1  0  0  0  0
  6 36  1  0  0  0  0
  7  9  1  0  0  0  0
  7 10  2  0  0  0  0
  8 10  1  0  0  0  0
  8 11  1  0  0  0  0
  9 12  1  0  0  0  0
  9 13  2  0  0  0  0
 10 37  1  0  0  0  0
 11 15  1  0  0  0  0
 11 38  1  0  0  0  0
 11 39  1  0  0  0  0
 12 18  2  0  0  0  0
 13 14  1  0  0  0  0
 14 18  1  0  0  0  0
 15 17  1  0  0  0  0
 15 29  1  0  0  0  0
 16 20  1  0  0  0  0
 16 24  2  0  0  0  0
 17 19  1  0  0  0  0
 17 21  2  0  0  0  0
 19 22  2  0  0  0  0
 19 27  1  0  0  0  0
 20 40  1  0  0  0  0
 22 25  1  0  0  0  0
 22 41  1  0  0  0  0
 23 24  1  0  0  0  0
 23 42  1  0  0  0  0
 24 43  1  0  0  0  0
 25 26  1  0  0  0  0
 25 32  2  0  0  0  0
 26 44  1  0  0  0  0
 27 28  1  0  0  0  0
 27 30  2  0  0  0  0
 28 29  1  0  0  0  0
 28 45  1  0  0  0  0
 28 46  1  0  0  0  0
 29 47  1  0  0  0  0
 29 48  1  0  0  0  0
 30 31  1  0  0  0  0
 30 32  1  0  0  0  0
 31 49  1  0  0  0  0
 32 50  1  0  0  0  0
M  CHG  1  14  -1
M  END
> <rseq>
1

> <mseq>
334

> <S>
-6.677157

> <rmsd_refine>
0.8086892

> <E_conf>
-78.18475

> <E_score1>
-12.35475

> <E_refine>
-40.07301

> <E_score2>
-6.677157

>  <$File>
outputs/pdb_4j58_cleaned.pdb_2024_06_17__22_47_40_V2_BS398_MIN1_/SDF/sdf_db.sdf

> <Rec_index>
1

>  <PLIF_raw>
[[31,18,18,14,14,18,18,4,6,7,10,8,5],[1056,1206,1212,1206,1212,1206,1212,954,954,954,954,954,954],[70,81,81,81,81,81,81,62,62,62,62,62,62],[3,2,2,7,7,7,7,10,10,10,10,10,10],[1.2,3.8,0.9,2.013517681,1.582895535,3.339059571,4.107021445,0.8,0.8,0.8,0.8,0.8,0.8]]

> <FP:PLIF>
21 3 17 18 24 25

>  <PLIF_ligidx>
[[4,6,7,10,8,5],31,[18,18],18,[14,14,18,18],18]

$$$$
334
  MOE2022           3D

 62 64  0  0  1  0  0  0  0  0999 V2000
    7.3020   21.1450   19.3340 C   0  0  0  0  0  0  0  0  0  0  0  0
    6.5330   20.0180   19.0720 C   0  0  0  0  0  0  0  0  0  0  0  0
    5.2290   20.1690   18.6030 C   0  0  0  0  0  0  0  0  0  0  0  0
    4.5160   19.0170   18.3290 O   0  0  0  0  0  0  0  0  0  0  0  0
    3.2040   18.9180   17.7000 C   0  0  1  0  0  0  0  0  0  0  0  0
    4.6830   21.4420   18.4130 C   0  0  0  0  0  0  0  0  0  0  0  0
    6.7680   22.4160   19.1390 C   0  0  0  0  0  0  0  0  0  0  0  0
    5.4600   22.5630   18.6830 C   0  0  0  0  0  0  0  0  0  0  0  0
    3.2530   19.1380   16.1830 C   0  0  0  0  0  0  0  0  0  0  0  0
    4.1130   19.8690   15.6910 O   0  0  0  0  0  0  0  0  0  0  0  0
    2.5210   17.6110   18.1290 C   0  0  0  0  0  0  0  0  0  0  0  0
    2.2530   18.6370   15.4170 N   0  0  0  0  0  0  0  0  0  0  0  0
    1.2100   17.3980   17.3720 C   0  0  0  0  0  0  0  0  0  0  0  0
    0.2550   18.4300   17.7040 N   0  0  0  0  0  0  0  0  0  0  0  0
    1.5110   17.4200   15.8520 C   0  0  1  0  0  0  0  0  0  0  0  0
    0.6050   16.1540   17.7870 N   0  0  0  0  0  0  0  0  0  0  0  0
    1.9340   19.2580   14.1190 C   0  0  0  0  0  0  0  0  0  0  0  0
    0.2980   17.2210   15.0900 O   0  0  0  0  0  0  0  0  0  0  0  0
    2.3770   18.4400   12.9080 C   0  0  0  0  0  0  0  0  0  0  0  0
    3.5380   18.4710   12.5050 O   0  0  0  0  0  0  0  0  0  0  0  0
    1.4200   17.7590   12.2530 O   0  0  0  0  0  0  0  0  0  0  0  0
    1.5740   17.1060   10.9680 C   0  0  0  0  0  0  0  0  0  0  0  0
    2.7290   16.1120   10.9050 C   0  0  0  0  0  0  0  0  0  0  0  0
    3.8060   16.2900    9.9890 C   0  0  0  0  0  0  0  0  0  0  0  0
    2.7180   15.0160   11.7470 C   0  0  0  0  0  0  0  0  0  0  0  0
    3.8390   17.5270    9.0930 C   0  0  0  0  0  0  0  0  0  0  0  0
    4.8050   15.3330    9.9260 C   0  0  0  0  0  0  0  0  0  0  0  0
    5.9580   15.4180    8.9390 C   0  0  0  0  0  0  0  0  0  0  0  0
    4.7520   14.2390   10.8240 C   0  0  0  0  0  0  0  0  0  0  0  0
    5.6650   13.2550   10.9240 N   0  0  0  0  0  0  0  0  0  0  0  0
    1.6750   14.6740   12.7960 C   0  0  0  0  0  0  0  0  0  0  0  0
    3.7360   14.1210   11.6870 N   0  3  0  0  0  0  0  0  0  0  0  0
    8.2990   21.0390   19.6760 H   0  0  0  0  0  0  0  0  0  0  0  0
    6.9390   19.0520   19.2180 H   0  0  0  0  0  0  0  0  0  0  0  0
    2.5970   19.7150   18.1040 H   0  0  0  0  0  0  0  0  0  0  0  0
    3.6930   21.5650   18.0620 H   0  0  0  0  0  0  0  0  0  0  0  0
    7.3590   23.2700   19.3350 H   0  0  0  0  0  0  0  0  0  0  0  0
    5.0590   23.5320   18.5350 H   0  0  0  0  0  0  0  0  0  0  0  0
    3.1850   16.7740   17.9140 H   0  0  0  0  0  0  0  0  0  0  0  0
    2.3370   17.6350   19.2040 H   0  0  0  0  0  0  0  0  0  0  0  0
    0.6590   19.3340   17.5080 H   0  0  0  0  0  0  0  0  0  0  0  0
    0.0430   18.3570   18.6890 H   0  0  0  0  0  0  0  0  0  0  0  0
    2.1390   16.5670   15.6320 H   0  0  0  0  0  0  0  0  0  0  0  0
    1.2030   15.3830   17.5190 H   0  0  0  0  0  0  0  0  0  0  0  0
   -0.2880   16.0670   17.3230 H   0  0  0  0  0  0  0  0  0  0  0  0
    0.8580   19.4220   14.0540 H   0  0  0  0  0  0  0  0  0  0  0  0
    2.3910   20.2450   14.0450 H   0  0  0  0  0  0  0  0  0  0  0  0
   -0.3970   17.8060   15.4360 H   0  0  0  0  0  0  0  0  0  0  0  0
    0.6500   16.5870   10.7490 H   0  0  0  0  0  0  0  0  0  0  0  0
    1.6330   17.8720   10.2110 H   0  0  0  0  0  0  0  0  0  0  0  0
    3.7050   18.4340    9.6830 H   0  0  0  0  0  0  0  0  0  0  0  0
    4.7780   17.6620    8.5610 H   0  0  0  0  0  0  0  0  0  0  0  0
    3.0460   17.4800    8.3470 H   0  0  0  0  0  0  0  0  0  0  0  0
    6.4950   14.4760    8.8470 H   0  0  0  0  0  0  0  0  0  0  0  0
    5.6010   15.6670    7.9390 H   0  0  0  0  0  0  0  0  0  0  0  0
    6.6630   16.1800    9.2620 H   0  0  0  0  0  0  0  0  0  0  0  0
    5.5730   12.5110   11.6370 H   0  0  0  0  0  0  0  0  0  0  0  0
    6.5060   13.2560   10.3250 H   0  0  0  0  0  0  0  0  0  0  0  0
    1.6740   13.6080   13.0280 H   0  0  0  0  0  0  0  0  0  0  0  0
    1.8770   15.2160   13.7190 H   0  0  0  0  0  0  0  0  0  0  0  0
    0.6720   14.9350   12.4610 H   0  0  0  0  0  0  0  0  0  0  0  0
    3.7400   13.3100   12.3310 H   0  0  0  0  0  0  0  0  0  0  0  0
  1  2  1  0  0  0  0
  1  7  2  0  0  0  0
  1 33  1  0  0  0  0
  2  3  2  0  0  0  0
  2 34  1  0  0  0  0
  3  4  1  0  0  0  0
  3  6  1  0  0  0  0
  4  5  1  0  0  0  0
  5  9  1  0  0  0  0
  5 11  1  0  0  0  0
  5 35  1  0  0  0  0
  6  8  2  0  0  0  0
  6 36  1  0  0  0  0
  7  8  1  0  0  0  0
  7 37  1  0  0  0  0
  8 38  1  0  0  0  0
  9 10  2  0  0  0  0
  9 12  1  0  0  0  0
 11 13  1  0  0  0  0
 11 39  1  0  0  0  0
 11 40  1  0  0  0  0
 12 15  1  0  0  0  0
 12 17  1  0  0  0  0
 13 14  1  0  0  0  0
 13 15  1  0  0  0  0
 13 16  1  0  0  0  0
 14 41  1  0  0  0  0
 14 42  1  0  0  0  0
 15 18  1  0  0  0  0
 15 43  1  0  0  0  0
 16 44  1  0  0  0  0
 16 45  1  0  0  0  0
 17 19  1  0  0  0  0
 17 46  1  0  0  0  0
 17 47  1  0  0  0  0
 18 48  1  0  0  0  0
 19 20  2  0  0  0  0
 19 21  1  0  0  0  0
 21 22  1  0  0  0  0
 22 23  1  0  0  0  0
 22 49  1  0  0  0  0
 22 50  1  0  0  0  0
 23 24  1  0  0  0  0
 23 25  2  0  0  0  0
 24 26  1  0  0  0  0
 24 27  2  0  0  0  0
 25 31  1  0  0  0  0
 25 32  1  0  0  0  0
 26 51  1  0  0  0  0
 26 52  1  0  0  0  0
 26 53  1  0  0  0  0
 27 28  1  0  0  0  0
 27 29  1  0  0  0  0
 28 54  1  0  0  0  0
 28 55  1  0  0  0  0
 28 56  1  0  0  0  0
 29 30  1  0  0  0  0
 29 32  2  0  0  0  0
 30 57  1  0  0  0  0
 30 58  1  0  0  0  0
 31 59  1  0  0  0  0
 31 60  1  0  0  0  0
 31 61  1  0  0  0  0
 32 62  1  0  0  0  0
M  CHG  1  32   1
M  END
> <rseq>
1

> <mseq>
335

> <S>
-6.249259

> <rmsd_refine>
1.128722

> <E_conf>
-87.25236

> <E_score1>
-11.39535

> <E_refine>
-39.24887

> <E_score2>
-6.249259

>  <$File>
outputs/pdb_4j58_cleaned.pdb_2024_06_17__22_47_40_V2_BS398_MIN1_/SDF/sdf_db.sdf

> <Rec_index>
1

>  <PLIF_raw>
[[16,30,32,23,25,32,29,27,24],[1071,1056,1056,820,820,820,820,820,820],[71,70,70,54,54,54,54,54,54],[3,3,3,10,10,10,10,10,10],[0.9,3.3,5.8,1.7,1.7,1.7,1.7,1.7,1.7]]

> <FP:PLIF>
2 5 3 4 7

>  <PLIF_ligidx>
[[23,25,32,29,27,24],[23,25,32,29,27,24],[30,32],[30,32],16]

$$$$
335
  MOE2022           3D

 55 59  0  0  1  0  0  0  0  0999 V2000
    5.5100   15.1980    9.6910 C   0  0  0  0  0  0  0  0  0  0  0  0
    5.1800   15.9650    8.5810 C   0  0  0  0  0  0  0  0  0  0  0  0
    4.5550   15.0240   10.6850 C   0  0  0  0  0  0  0  0  0  0  0  0
    6.0950   16.1420    7.6140 F   0  0  0  0  0  0  0  0  0  0  0  0
    3.2890   15.6240   10.5780 C   0  0  0  0  0  0  0  0  0  0  0  0
    2.3090   15.4920   11.6360 C   0  0  0  0  0  0  0  0  0  0  0  0
    3.9330   16.5550    8.4310 C   0  0  0  0  0  0  0  0  0  0  0  0
    2.9870   16.3790    9.4320 C   0  0  0  0  0  0  0  0  0  0  0  0
    2.6470   15.6250   12.9710 N   0  0  0  0  0  0  0  0  0  0  0  0
    0.9530   15.2820   11.6010 C   0  0  0  0  0  0  0  0  0  0  0  0
    1.5250   15.5220   13.7450 C   0  0  0  0  0  0  0  0  0  0  0  0
    1.5690   15.6550   15.1560 N   0  0  0  0  0  0  0  0  0  0  0  0
    0.4630   15.2940   12.9090 C   0  0  0  0  0  0  0  0  0  0  0  0
    0.4310   16.3310   15.7790 C   0  0  0  0  0  0  0  0  0  0  0  0
    2.7440   16.2730   15.7710 C   0  0  0  0  0  0  0  0  0  0  0  0
    2.4240   17.7570   16.0610 C   0  0  2  0  0  0  0  0  0  0  0  0
    3.1980   18.2360   17.3060 C   0  0  1  0  0  0  0  0  0  0  0  0
    0.9010   17.6990   16.3050 C   0  0  2  0  0  0  0  0  0  0  0  0
    2.8260   18.6170   14.8390 C   0  0  0  0  0  0  0  0  0  0  0  0
    3.8630   18.2890   14.2220 O   0  5  0  0  0  0  0  0  0  0  0  0
    3.1060   19.6800   17.4850 O   0  0  0  0  0  0  0  0  0  0  0  0
    4.1030   20.4820   18.0220 C   0  0  0  0  0  0  0  0  0  0  0  0
    3.9850   21.8570   17.8330 C   0  0  0  0  0  0  0  0  0  0  0  0
    4.9700   22.7060   18.3300 C   0  0  0  0  0  0  0  0  0  0  0  0
    5.1910   19.9520   18.7230 C   0  0  0  0  0  0  0  0  0  0  0  0
    6.0640   22.1830   19.0160 C   0  0  0  0  0  0  0  0  0  0  0  0
    6.1710   20.8080   19.2170 C   0  0  0  0  0  0  0  0  0  0  0  0
    2.7690   17.5030   18.6020 C   0  0  0  0  0  0  0  0  0  0  0  0
    1.3110   17.3380   18.8250 N   0  0  0  0  0  0  0  0  0  0  0  0
    0.4950   17.9790   17.7690 C   0  0  0  0  0  0  0  0  0  0  0  0
    2.1400   19.6250   14.5560 O   0  0  0  0  0  0  0  0  0  0  0  0
    1.0050   15.9840   18.8880 O   0  0  0  0  0  0  0  0  0  0  0  0
    6.4670   14.7510    9.7740 H   0  0  0  0  0  0  0  0  0  0  0  0
    4.7820   14.4270   11.5300 H   0  0  0  0  0  0  0  0  0  0  0  0
    3.7080   17.1310    7.5710 H   0  0  0  0  0  0  0  0  0  0  0  0
    2.0320   16.8280    9.3380 H   0  0  0  0  0  0  0  0  0  0  0  0
    3.5900   15.8330   13.3360 H   0  0  0  0  0  0  0  0  0  0  0  0
    0.3800   15.1430   10.7220 H   0  0  0  0  0  0  0  0  0  0  0  0
   -0.5430   15.1590   13.2070 H   0  0  0  0  0  0  0  0  0  0  0  0
   -0.3920   16.4600   15.0910 H   0  0  0  0  0  0  0  0  0  0  0  0
    0.0500   15.7130   16.5790 H   0  0  0  0  0  0  0  0  0  0  0  0
    2.9280   15.7420   16.6920 H   0  0  0  0  0  0  0  0  0  0  0  0
    3.6510   16.1260   15.2050 H   0  0  0  0  0  0  0  0  0  0  0  0
    4.2500   18.0380   17.1180 H   0  0  0  0  0  0  0  0  0  0  0  0
    0.3750   18.4440   15.7090 H   0  0  0  0  0  0  0  0  0  0  0  0
    3.1530   22.2490   17.3060 H   0  0  0  0  0  0  0  0  0  0  0  0
    4.8890   23.7510   18.1800 H   0  0  0  0  0  0  0  0  0  0  0  0
    5.2790   18.9130   18.8850 H   0  0  0  0  0  0  0  0  0  0  0  0
    6.8170   22.8310   19.3850 H   0  0  0  0  0  0  0  0  0  0  0  0
    7.0020   20.4140   19.7420 H   0  0  0  0  0  0  0  0  0  0  0  0
    3.2340   16.5280   18.6260 H   0  0  0  0  0  0  0  0  0  0  0  0
    3.1820   18.0140   19.4590 H   0  0  0  0  0  0  0  0  0  0  0  0
   -0.5440   17.7170   17.9120 H   0  0  0  0  0  0  0  0  0  0  0  0
    0.5450   19.0460   17.9280 H   0  0  0  0  0  0  0  0  0  0  0  0
    1.5710   15.6100   19.5820 H   0  0  0  0  0  0  0  0  0  0  0  0
  1  2  2  0  0  0  0
  1  3  1  0  0  0  0
  1 33  1  0  0  0  0
  2  4  1  0  0  0  0
  2  7  1  0  0  0  0
  3  5  2  0  0  0  0
  3 34  1  0  0  0  0
  5  6  1  0  0  0  0
  5  8  1  0  0  0  0
  6  9  1  0  0  0  0
  6 10  2  0  0  0  0
  7  8  2  0  0  0  0
  7 35  1  0  0  0  0
  8 36  1  0  0  0  0
  9 11  1  0  0  0  0
  9 37  1  0  0  0  0
 10 13  1  0  0  0  0
 10 38  1  0  0  0  0
 11 12  1  0  0  0  0
 11 13  2  0  0  0  0
 12 14  1  0  0  0  0
 12 15  1  0  0  0  0
 13 39  1  0  0  0  0
 14 18  1  0  0  0  0
 14 40  1  0  0  0  0
 14 41  1  0  0  0  0
 15 16  1  0  0  0  0
 15 42  1  0  0  0  0
 15 43  1  0  0  0  0
 16 17  1  0  0  0  0
 16 18  1  0  0  0  0
 16 19  1  0  0  0  0
 17 21  1  0  0  0  0
 17 28  1  0  0  0  0
 17 44  1  0  0  0  0
 18 30  1  0  0  0  0
 18 45  1  0  0  0  0
 19 20  1  0  0  0  0
 19 31  2  0  0  0  0
 21 22  1  0  0  0  0
 22 23  1  0  0  0  0
 22 25  2  0  0  0  0
 23 24  2  0  0  0  0
 23 46  1  0  0  0  0
 24 26  1  0  0  0  0
 24 47  1  0  0  0  0
 25 27  1  0  0  0  0
 25 48  1  0  0  0  0
 26 27  2  0  0  0  0
 26 49  1  0  0  0  0
 27 50  1  0  0  0  0
 28 29  1  0  0  0  0
 28 51  1  0  0  0  0
 28 52  1  0  0  0  0
 29 30  1  0  0  0  0
 29 32  1  0  0  0  0
 30 53  1  0  0  0  0
 30 54  1  0  0  0  0
 32 55  1  0  0  0  0
M  CHG  1  20  -1
M  END
> <rseq>
1

> <mseq>
336

> <S>
-6.088649

> <rmsd_refine>
1.109051

> <E_conf>
-35.55943

> <E_score1>
-11.21363

> <E_refine>
-25.50886

> <E_score2>
-6.088649

>  <$File>
outputs/pdb_4j58_cleaned.pdb_2024_06_17__22_47_40_V2_BS398_MIN1_/SDF/sdf_db.sdf

> <Rec_index>
1

>  <PLIF_raw>
[[20,20,20],[823,826,829],[54,54,54],[7,7,7],[3.38341151,4.08543206,1.04279605]]

> <FP:PLIF>
1 16

>  <PLIF_ligidx>
[[20,20,20],20]

$$$$
336
  MOE2022           3D

 61 63  0  0  1  0  0  0  0  0999 V2000
    6.1400   14.4660   10.0750 C   0  0  0  0  0  0  0  0  0  0  0  0
    5.7940   15.7300    9.6120 C   0  0  0  0  0  0  0  0  0  0  0  0
    4.5460   16.2650    9.9110 C   0  0  0  0  0  0  0  0  0  0  0  0
    3.6240   15.5350   10.6730 C   0  0  0  0  0  0  0  0  0  0  0  0
    3.9790   14.2550   11.1190 C   0  0  0  0  0  0  0  0  0  0  0  0
    5.2320   13.7280   10.8250 C   0  0  0  0  0  0  0  0  0  0  0  0
    2.3010   16.0920   10.9540 C   0  0  0  0  0  0  0  0  0  0  0  0
    1.8110   16.1430   12.2550 N   0  0  0  0  0  0  0  0  0  0  0  0
    1.5950   16.5260   10.0470 O   0  0  0  0  0  0  0  0  0  0  0  0
    2.6970   16.1520   13.4370 C   0  0  0  0  0  0  0  0  0  0  0  0
    0.4340   16.6150   12.5250 C   0  0  0  0  0  0  0  0  0  0  0  0
    2.0470   15.5270   14.6820 C   0  0  0  0  0  0  0  0  0  0  0  0
   -0.1890   15.9890   13.7850 C   0  0  0  0  0  0  0  0  0  0  0  0
    0.7070   16.0730   14.9490 N   0  0  0  0  0  0  0  0  0  0  0  0
    0.2570   16.4550   16.2060 C   0  0  0  0  0  0  0  0  0  0  0  0
   -0.9550   16.5030   16.4020 O   0  0  0  0  0  0  0  0  0  0  0  0
    1.2100   16.8070   17.2570 C   0  0  0  0  0  0  0  0  0  0  0  0
    2.2250   17.7370   17.0150 C   0  0  0  0  0  0  0  0  0  0  0  0
    1.0970   16.2340   18.5300 C   0  0  0  0  0  0  0  0  0  0  0  0
    2.0000   16.5580   19.5400 C   0  0  0  0  0  0  0  0  0  0  0  0
    3.1280   18.0660   18.0240 C   0  0  0  0  0  0  0  0  0  0  0  0
    3.0240   17.4660   19.2860 C   0  0  0  0  0  0  0  0  0  0  0  0
    1.8550   15.9360   20.9120 C   0  0  0  0  0  0  0  0  0  0  0  0
    4.1410   19.0070   17.6680 N   0  0  0  0  0  0  0  0  0  0  0  0
    5.0570   19.6780   18.4570 C   0  0  0  0  0  0  0  0  0  0  0  0
    5.0460   19.5930   19.6700 O   0  0  0  0  0  0  0  0  0  0  0  0
    6.0130   20.5790   17.6830 C   0  0  2  0  0  0  0  0  0  0  0  0
    7.3850   20.9050   18.3500 C   0  0  0  0  0  0  0  0  0  0  0  0
    7.2620   21.7700   19.6160 C   0  0  0  0  0  0  0  0  0  0  0  0
    8.3120   21.6300   17.3610 C   0  0  0  0  0  0  0  0  0  0  0  0
    8.0180   19.6920   18.7040 O   0  0  0  0  0  0  0  0  0  0  0  0
    5.3230   21.7870   17.2660 O   0  0  0  0  0  0  0  0  0  0  0  0
    7.0930   14.0600    9.8540 H   0  0  0  0  0  0  0  0  0  0  0  0
    6.4790   16.2810    9.0230 H   0  0  0  0  0  0  0  0  0  0  0  0
    4.2870   17.2280    9.5510 H   0  0  0  0  0  0  0  0  0  0  0  0
    3.2880   13.6810   11.6820 H   0  0  0  0  0  0  0  0  0  0  0  0
    5.4960   12.7600   11.1660 H   0  0  0  0  0  0  0  0  0  0  0  0
    3.6240   15.6380   13.2460 H   0  0  0  0  0  0  0  0  0  0  0  0
    2.9710   17.1740   13.6620 H   0  0  0  0  0  0  0  0  0  0  0  0
    0.4450   17.6910   12.6350 H   0  0  0  0  0  0  0  0  0  0  0  0
   -0.2170   16.4110   11.6850 H   0  0  0  0  0  0  0  0  0  0  0  0
    1.9570   14.4620   14.5170 H   0  0  0  0  0  0  0  0  0  0  0  0
    2.7090   15.6270   15.5290 H   0  0  0  0  0  0  0  0  0  0  0  0
   -1.1390   16.4690   13.9800 H   0  0  0  0  0  0  0  0  0  0  0  0
   -0.4170   14.9510   13.5880 H   0  0  0  0  0  0  0  0  0  0  0  0
    2.3050   18.1960   16.0630 H   0  0  0  0  0  0  0  0  0  0  0  0
    0.3160   15.5430   18.7220 H   0  0  0  0  0  0  0  0  0  0  0  0
    3.7100   17.6910   20.0540 H   0  0  0  0  0  0  0  0  0  0  0  0
    2.7910   15.9900   21.4690 H   0  0  0  0  0  0  0  0  0  0  0  0
    1.0840   16.4560   21.4810 H   0  0  0  0  0  0  0  0  0  0  0  0
    1.5720   14.8880   20.8290 H   0  0  0  0  0  0  0  0  0  0  0  0
    4.1830   19.2440   16.6650 H   0  0  0  0  0  0  0  0  0  0  0  0
    6.2350   20.0620   16.7600 H   0  0  0  0  0  0  0  0  0  0  0  0
    8.2550   22.0450   19.9630 H   0  0  0  0  0  0  0  0  0  0  0  0
    6.7020   22.6800   19.4040 H   0  0  0  0  0  0  0  0  0  0  0  0
    6.7730   21.2150   20.4130 H   0  0  0  0  0  0  0  0  0  0  0  0
    9.2900   21.7860   17.8170 H   0  0  0  0  0  0  0  0  0  0  0  0
    8.4330   21.0360   16.4550 H   0  0  0  0  0  0  0  0  0  0  0  0
    7.8960   22.6020   17.0930 H   0  0  0  0  0  0  0  0  0  0  0  0
    8.2940   19.2410   17.9020 H   0  0  0  0  0  0  0  0  0  0  0  0
    4.9880   22.2640   18.0430 H   0  0  0  0  0  0  0  0  0  0  0  0
  1  2  2  0  0  0  0
  1  6  1  0  0  0  0
  1 33  1  0  0  0  0
  2  3  1  0  0  0  0
  2 34  1  0  0  0  0
  3  4  2  0  0  0  0
  3 35  1  0  0  0  0
  4  5  1  0  0  0  0
  4  7  1  0  0  0  0
  5  6  2  0  0  0  0
  5 36  1  0  0  0  0
  6 37  1  0  0  0  0
  7  8  1  0  0  0  0
  7  9  2  0  0  0  0
  8 10  1  0  0  0  0
  8 11  1  0  0  0  0
 10 12  1  0  0  0  0
 10 38  1  0  0  0  0
 10 39  1  0  0  0  0
 11 13  1  0  0  0  0
 11 40  1  0  0  0  0
 11 41  1  0  0  0  0
 12 14  1  0  0  0  0
 12 42  1  0  0  0  0
 12 43  1  0  0  0  0
 13 14  1  0  0  0  0
 13 44  1  0  0  0  0
 13 45  1  0  0  0  0
 14 15  1  0  0  0  0
 15 16  2  0  0  0  0
 15 17  1  0  0  0  0
 17 18  2  0  0  0  0
 17 19  1  0  0  0  0
 18 21  1  0  0  0  0
 18 46  1  0  0  0  0
 19 20  2  0  0  0  0
 19 47  1  0  0  0  0
 20 22  1  0  0  0  0
 20 23  1  0  0  0  0
 21 22  2  0  0  0  0
 21 24  1  0  0  0  0
 22 48  1  0  0  0  0
 23 49  1  0  0  0  0
 23 50  1  0  0  0  0
 23 51  1  0  0  0  0
 24 25  1  0  0  0  0
 24 52  1  0  0  0  0
 25 26  2  0  0  0  0
 25 27  1  0  0  0  0
 27 28  1  0  0  0  0
 27 32  1  0  0  0  0
 27 53  1  0  0  0  0
 28 29  1  0  0  0  0
 28 30  1  0  0  0  0
 28 31  1  0  0  0  0
 29 54  1  0  0  0  0
 29 55  1  0  0  0  0
 29 56  1  0  0  0  0
 30 57  1  0  0  0  0
 30 58  1  0  0  0  0
 30 59  1  0  0  0  0
 31 60  1  0  0  0  0
 32 61  1  0  0  0  0
M  END
> <rseq>
1

> <mseq>
337

> <S>
-7.651233

> <rmsd_refine>
1.092529

> <E_conf>
40.01338

> <E_score1>
-10.56574

> <E_refine>
-43.17842

> <E_score2>
-7.651233

>  <$File>
outputs/pdb_4j58_cleaned.pdb_2024_06_17__22_47_40_V2_BS398_MIN1_/SDF/sdf_db.sdf

> <Rec_index>
1

>  <PLIF_raw>
[[26,1,6,5,4,3,2],[1499,820,820,820,820,820,820],[101,54,54,54,54,54,54],[4,10,10,10,10,10,10],[1.7,0.6,0.6,0.6,0.6,0.6,0.6]]

> <FP:PLIF>
2 11 12

>  <PLIF_ligidx>
[[1,6,5,4,3,2],26,26]

$$$$
337
  MOE2022           3D

 57 59  0  0  1  0  0  0  0  0999 V2000
    2.1150   16.1860   19.1380 O   0  0  0  0  0  0  0  0  0  0  0  0
    1.2350   16.4380   18.3180 C   0  0  0  0  0  0  0  0  0  0  0  0
    1.5300   17.2490   17.2510 N   0  0  0  0  0  0  0  0  0  0  0  0
   -0.1210   15.8960   18.4100 C   0  0  0  0  0  0  0  0  0  0  0  0
   -1.2130   16.5420   17.8090 C   0  0  0  0  0  0  0  0  0  0  0  0
   -2.4910   16.0030   17.9000 C   0  0  0  0  0  0  0  0  0  0  0  0
   -0.3480   14.6990   19.1020 C   0  0  0  0  0  0  0  0  0  0  0  0
    2.8780   17.6660   16.8760 C   0  0  1  0  0  0  0  0  0  0  0  0
   -1.6270   14.1600   19.1880 C   0  0  0  0  0  0  0  0  0  0  0  0
   -2.6990   14.8120   18.5880 C   0  0  0  0  0  0  0  0  0  0  0  0
    2.9550   17.9110   15.3660 C   0  0  0  0  0  0  0  0  0  0  0  0
    2.6380   16.8820   14.4650 C   0  0  0  0  0  0  0  0  0  0  0  0
    2.3690   15.6180   14.9140 O   0  0  0  0  0  0  0  0  0  0  0  0
    2.5830   17.1000   13.0940 C   0  0  0  0  0  0  0  0  0  0  0  0
    2.8800   18.3680   12.6100 C   0  0  0  0  0  0  0  0  0  0  0  0
    3.3270   18.8620   17.7440 C   0  0  0  0  0  0  0  0  0  0  0  0
    2.7260   18.6360   11.2710 O   0  0  0  0  0  0  0  0  0  0  0  0
    3.2780   19.3900   13.4710 C   0  0  0  0  0  0  0  0  0  0  0  0
    4.3940   19.7370   17.0720 C   0  0  1  0  0  0  0  0  0  0  0  0
    3.3290   19.1600   14.8480 C   0  0  0  0  0  0  0  0  0  0  0  0
    3.7520   18.3690   10.2820 C   0  0  0  0  0  0  0  0  0  0  0  0
    3.7800   20.2780   15.7720 C   0  0  0  0  0  0  0  0  0  0  0  0
    3.9300   16.9070    9.9200 C   0  0  0  0  0  0  0  0  0  0  0  0
    4.9600   20.8570   17.9820 C   0  0  2  0  0  0  0  0  0  0  0  0
    3.0060   16.0980    9.9800 O   0  0  0  0  0  0  0  0  0  0  0  0
    5.1400   16.5730    9.4500 N   0  0  0  0  0  0  0  0  0  0  0  0
    5.4870   15.2590    8.9290 C   0  0  0  0  0  0  0  0  0  0  0  0
    5.8390   20.3350   19.1140 C   0  0  0  0  0  0  0  0  0  0  0  0
    3.9020   21.7270   18.4730 O   0  0  0  0  0  0  0  0  0  0  0  0
    6.1310   14.4140   10.0240 C   0  0  0  0  0  0  0  0  0  0  0  0
    7.0470   20.1380   18.8570 O   0  0  0  0  0  0  0  0  0  0  0  0
    5.3130   20.0910   20.2230 O   0  5  0  0  0  0  0  0  0  0  0  0
    0.7940   17.4220   16.5530 H   0  0  0  0  0  0  0  0  0  0  0  0
   -1.0740   17.4520   17.2860 H   0  0  0  0  0  0  0  0  0  0  0  0
   -3.3090   16.5000   17.4450 H   0  0  0  0  0  0  0  0  0  0  0  0
    0.4650   14.1920   19.5520 H   0  0  0  0  0  0  0  0  0  0  0  0
    3.5430   16.8410   17.0760 H   0  0  0  0  0  0  0  0  0  0  0  0
   -1.7880   13.2500   19.7050 H   0  0  0  0  0  0  0  0  0  0  0  0
   -3.6740   14.4000   18.6530 H   0  0  0  0  0  0  0  0  0  0  0  0
    2.1430   15.0270   14.1690 H   0  0  0  0  0  0  0  0  0  0  0  0
    2.3000   16.3210   12.4340 H   0  0  0  0  0  0  0  0  0  0  0  0
    2.4560   19.4830   17.9560 H   0  0  0  0  0  0  0  0  0  0  0  0
    3.7030   18.4770   18.6920 H   0  0  0  0  0  0  0  0  0  0  0  0
    3.5260   20.3410   13.0770 H   0  0  0  0  0  0  0  0  0  0  0  0
    5.2440   19.1140   16.8070 H   0  0  0  0  0  0  0  0  0  0  0  0
    3.5020   18.9210    9.3860 H   0  0  0  0  0  0  0  0  0  0  0  0
    4.6830   18.7980   10.6160 H   0  0  0  0  0  0  0  0  0  0  0  0
    2.9210   20.9100   16.0030 H   0  0  0  0  0  0  0  0  0  0  0  0
    4.5250   20.8860   15.2580 H   0  0  0  0  0  0  0  0  0  0  0  0
    5.5910   21.4740   17.3570 H   0  0  0  0  0  0  0  0  0  0  0  0
    5.8460   17.2900    9.3760 H   0  0  0  0  0  0  0  0  0  0  0  0
    4.5990   14.7500    8.5500 H   0  0  0  0  0  0  0  0  0  0  0  0
    6.1940   15.3830    8.1090 H   0  0  0  0  0  0  0  0  0  0  0  0
    3.4060   21.2630   19.1720 H   0  0  0  0  0  0  0  0  0  0  0  0
    5.4360   14.2880   10.8550 H   0  0  0  0  0  0  0  0  0  0  0  0
    6.3900   13.4340    9.6230 H   0  0  0  0  0  0  0  0  0  0  0  0
    7.0360   14.9050   10.3750 H   0  0  0  0  0  0  0  0  0  0  0  0
  1  2  2  0  0  0  0
  2  3  1  0  0  0  0
  2  4  1  0  0  0  0
  3  8  1  0  0  0  0
  3 33  1  0  0  0  0
  4  5  2  0  0  0  0
  4  7  1  0  0  0  0
  5  6  1  0  0  0  0
  5 34  1  0  0  0  0
  6 10  2  0  0  0  0
  6 35  1  0  0  0  0
  7  9  2  0  0  0  0
  7 36  1  0  0  0  0
  8 11  1  0  0  0  0
  8 16  1  0  0  0  0
  8 37  1  0  0  0  0
  9 10  1  0  0  0  0
  9 38  1  0  0  0  0
 10 39  1  0  0  0  0
 11 12  1  0  0  0  0
 11 20  2  0  0  0  0
 12 13  1  0  0  0  0
 12 14  2  0  0  0  0
 13 40  1  0  0  0  0
 14 15  1  0  0  0  0
 14 41  1  0  0  0  0
 15 17  1  0  0  0  0
 15 18  2  0  0  0  0
 16 19  1  0  0  0  0
 16 42  1  0  0  0  0
 16 43  1  0  0  0  0
 17 21  1  0  0  0  0
 18 20  1  0  0  0  0
 18 44  1  0  0  0  0
 19 22  1  0  0  0  0
 19 24  1  0  0  0  0
 19 45  1  0  0  0  0
 20 22  1  0  0  0  0
 21 23  1  0  0  0  0
 21 46  1  0  0  0  0
 21 47  1  0  0  0  0
 22 48  1  0  0  0  0
 22 49  1  0  0  0  0
 23 25  2  0  0  0  0
 23 26  1  0  0  0  0
 24 28  1  0  0  0  0
 24 29  1  0  0  0  0
 24 50  1  0  0  0  0
 26 27  1  0  0  0  0
 26 51  1  0  0  0  0
 27 30  1  0  0  0  0
 27 52  1  0  0  0  0
 27 53  1  0  0  0  0
 28 31  2  0  0  0  0
 28 32  1  0  0  0  0
 29 54  1  0  0  0  0
 30 55  1  0  0  0  0
 30 56  1  0  0  0  0
 30 57  1  0  0  0  0
M  CHG  1  32  -1
M  END
> <rseq>
1

> <mseq>
338

> <S>
-6.51455

> <rmsd_refine>
1.665624

> <E_conf>
-67.00312

> <E_score1>
-11.78245

> <E_refine>
-39.47076

> <E_score2>
-6.51455

>  <$File>
outputs/pdb_4j58_cleaned.pdb_2024_06_17__22_47_40_V2_BS398_MIN1_/SDF/sdf_db.sdf

> <Rec_index>
1

>  <PLIF_raw>
[[26,29,32,32],[2222,1504,1499,1866],[148,101,101,125],[3,3,4,7],[2.1,1.8,6.7,0.5644565417]]

> <FP:PLIF>
8 10 11 12 13 39 40

>  <PLIF_ligidx>
[29,29,32,32,32,26,26]

$$$$
338
  MOE2022           3D

 51 53  0  0  1  0  0  0  0  0999 V2000
    6.5290   20.0640   19.0840 C   0  0  0  0  0  0  0  0  0  0  0  0
    7.5310   20.8810   18.6240 C   0  0  0  0  0  0  0  0  0  0  0  0
    5.3690   19.8480   18.3080 C   0  0  0  0  0  0  0  0  0  0  0  0
    4.3370   18.9950   18.7540 C   0  0  0  0  0  0  0  0  0  0  0  0
    3.2420   18.7400   17.9610 C   0  0  0  0  0  0  0  0  0  0  0  0
    7.4100   21.5320   17.3830 C   0  0  0  0  0  0  0  0  0  0  0  0
    8.5380   22.4360   16.9360 C   0  0  0  0  0  0  0  0  0  0  0  0
    6.2720   21.3550   16.5970 C   0  0  0  0  0  0  0  0  0  0  0  0
    3.1890   19.4060   16.6910 C   0  0  0  0  0  0  0  0  0  0  0  0
    6.1310   22.0620   15.3260 C   0  0  0  0  0  0  0  0  0  0  0  0
    2.2030   17.8190   18.4450 C   0  0  0  0  0  0  0  0  0  0  0  0
    6.9030   21.7740   14.3650 O   0  0  0  0  0  0  0  0  0  0  0  0
    5.2810   22.9840   15.2190 O   0  5  0  0  0  0  0  0  0  0  0  0
    2.5200   16.9400   19.2970 O   0  5  0  0  0  0  0  0  0  0  0  0
    1.0080   17.9020   18.0480 O   0  0  0  0  0  0  0  0  0  0  0  0
    2.1150   19.1690   15.8460 N   0  0  0  0  0  0  0  0  0  0  0  0
    5.2370   20.4800   17.0490 C   0  0  0  0  0  0  0  0  0  0  0  0
    1.8000   19.9490   14.6410 C   0  0  0  0  0  0  0  0  0  0  0  0
    4.1320   20.2320   16.2780 N   0  0  0  0  0  0  0  0  0  0  0  0
    2.3890   19.3920   13.3310 C   0  0  2  0  0  0  0  0  0  0  0  0
    1.9690   17.9360   13.0390 C   0  0  0  0  0  0  0  0  0  0  0  0
    3.7950   19.5060   13.3490 O   0  0  0  0  0  0  0  0  0  0  0  0
    2.8020   17.2380   11.9710 C   0  0  0  0  0  0  0  0  0  0  0  0
    3.2420   15.9330   12.1840 C   0  0  0  0  0  0  0  0  0  0  0  0
    4.0450   15.2960   11.2440 C   0  0  0  0  0  0  0  0  0  0  0  0
    3.1500   17.8830   10.7850 C   0  0  0  0  0  0  0  0  0  0  0  0
    3.9610   17.2490    9.8490 C   0  0  0  0  0  0  0  0  0  0  0  0
    4.4240   15.9530   10.0750 C   0  0  0  0  0  0  0  0  0  0  0  0
    5.5270   15.1480    8.9120 S   0  0  0  0  0  0  0  0  0  0  0  0
    6.4940   14.4200    9.6620 O   0  0  0  0  0  0  0  0  0  0  0  0
    6.0190   16.1330    8.0100 O   0  0  0  0  0  0  0  0  0  0  0  0
    4.5490   14.0940    8.0980 N   0  0  0  0  0  0  0  0  0  0  0  0
    6.6280   19.5850   20.0220 H   0  0  0  0  0  0  0  0  0  0  0  0
    8.4020   21.0260   19.2110 H   0  0  0  0  0  0  0  0  0  0  0  0
    4.4120   18.5530   19.7100 H   0  0  0  0  0  0  0  0  0  0  0  0
    9.0280   22.0260   16.0530 H   0  0  0  0  0  0  0  0  0  0  0  0
    8.1500   23.4250   16.6930 H   0  0  0  0  0  0  0  0  0  0  0  0
    9.2900   22.5490   17.7150 H   0  0  0  0  0  0  0  0  0  0  0  0
    1.3430   18.6140   16.2540 H   0  0  0  0  0  0  0  0  0  0  0  0
    0.7160   19.9870   14.5340 H   0  0  0  0  0  0  0  0  0  0  0  0
    2.1450   20.9770   14.7660 H   0  0  0  0  0  0  0  0  0  0  0  0
    2.0250   20.0160   12.5150 H   0  0  0  0  0  0  0  0  0  0  0  0
    2.0410   17.3560   13.9600 H   0  0  0  0  0  0  0  0  0  0  0  0
    0.9240   17.9300   12.7290 H   0  0  0  0  0  0  0  0  0  0  0  0
    4.1460   19.0800   12.5650 H   0  0  0  0  0  0  0  0  0  0  0  0
    2.9760   15.4210   13.0740 H   0  0  0  0  0  0  0  0  0  0  0  0
    4.3830   14.3080   11.4260 H   0  0  0  0  0  0  0  0  0  0  0  0
    2.8090   18.8680   10.5940 H   0  0  0  0  0  0  0  0  0  0  0  0
    4.2350   17.7610    8.9610 H   0  0  0  0  0  0  0  0  0  0  0  0
    4.1720   13.2910    8.6060 H   0  0  0  0  0  0  0  0  0  0  0  0
    3.8460   14.4780    7.4640 H   0  0  0  0  0  0  0  0  0  0  0  0
  1  2  1  0  0  0  0
  1  3  2  0  0  0  0
  1 33  1  0  0  0  0
  2  6  2  0  0  0  0
  2 34  1  0  0  0  0
  3  4  1  0  0  0  0
  3 17  1  0  0  0  0
  4  5  2  0  0  0  0
  4 35  1  0  0  0  0
  5  9  1  0  0  0  0
  5 11  1  0  0  0  0
  6  7  1  0  0  0  0
  6  8  1  0  0  0  0
  7 36  1  0  0  0  0
  7 37  1  0  0  0  0
  7 38  1  0  0  0  0
  8 10  1  0  0  0  0
  8 17  2  0  0  0  0
  9 16  1  0  0  0  0
  9 19  2  0  0  0  0
 10 12  2  0  0  0  0
 10 13  1  0  0  0  0
 11 14  1  0  0  0  0
 11 15  2  0  0  0  0
 16 18  1  0  0  0  0
 16 39  1  0  0  0  0
 17 19  1  0  0  0  0
 18 20  1  0  0  0  0
 18 40  1  0  0  0  0
 18 41  1  0  0  0  0
 20 21  1  0  0  0  0
 20 22  1  0  0  0  0
 20 42  1  0  0  0  0
 21 23  1  0  0  0  0
 21 43  1  0  0  0  0
 21 44  1  0  0  0  0
 22 45  1  0  0  0  0
 23 24  1  0  0  0  0
 23 26  2  0  0  0  0
 24 25  2  0  0  0  0
 24 46  1  0  0  0  0
 25 28  1  0  0  0  0
 25 47  1  0  0  0  0
 26 27  1  0  0  0  0
 26 48  1  0  0  0  0
 27 28  2  0  0  0  0
 27 49  1  0  0  0  0
 28 29  1  0  0  0  0
 29 30  2  0  0  0  0
 29 31  2  0  0  0  0
 29 32  1  0  0  0  0
 32 50  1  0  0  0  0
 32 51  1  0  0  0  0
M  CHG  1  13  -1
M  CHG  1  14  -1
M  END
> <rseq>
1

> <mseq>
339

> <S>
-6.406169

> <rmsd_refine>
1.195045

> <E_conf>
-223.2673

> <E_score1>
-10.72282

> <E_refine>
-37.6441

> <E_score2>
-6.406169

>  <$File>
outputs/pdb_4j58_cleaned.pdb_2024_06_17__22_47_40_V2_BS398_MIN1_/SDF/sdf_db.sdf

> <Rec_index>
1

>  <PLIF_raw>
[[12,12,12,12],[826,829,826,829],[54,54,54,54],[2,2,7,7],[6.4,0.9,5.337160306,2.510869321]]

> <FP:PLIF>
6 19 1 16

>  <PLIF_ligidx>
[[12,12],12,[12,12],12]

$$$$
339
  MOE2022           3D

 61 64  0  0  1  0  0  0  0  0999 V2000
    6.1700   14.4390   10.0860 C   0  0  0  0  0  0  0  0  0  0  0  0
    5.8280   15.7030    9.6200 C   0  0  0  0  0  0  0  0  0  0  0  0
    4.5650   16.2250    9.8780 C   0  0  0  0  0  0  0  0  0  0  0  0
    3.6240   15.4810   10.6010 C   0  0  0  0  0  0  0  0  0  0  0  0
    3.9750   14.2010   11.0510 C   0  0  0  0  0  0  0  0  0  0  0  0
    5.2410   13.6870   10.7970 C   0  0  0  0  0  0  0  0  0  0  0  0
    2.2870   16.0250   10.8400 C   0  0  0  0  0  0  0  0  0  0  0  0
    1.7440   16.0400   12.1200 N   0  0  0  0  0  0  0  0  0  0  0  0
    1.6150   16.4760    9.9160 O   0  0  0  0  0  0  0  0  0  0  0  0
    2.5710   16.0060   13.3430 C   0  0  0  0  0  0  0  0  0  0  0  0
    0.3420   16.4530   12.3520 C   0  0  0  0  0  0  0  0  0  0  0  0
    1.8890   15.2500   14.4940 C   0  0  0  0  0  0  0  0  0  0  0  0
   -0.3220   15.6980   13.5190 C   0  0  0  0  0  0  0  0  0  0  0  0
    0.5100   15.7110   14.7320 N   0  0  0  0  0  0  0  0  0  0  0  0
    0.0080   16.0850   15.9730 C   0  0  0  0  0  0  0  0  0  0  0  0
   -1.2070   16.0430   16.1470 O   0  0  0  0  0  0  0  0  0  0  0  0
    0.9160   16.5390   17.0270 C   0  0  0  0  0  0  0  0  0  0  0  0
    1.9250   17.4590   16.7320 C   0  0  0  0  0  0  0  0  0  0  0  0
    0.7820   16.0800   18.3420 C   0  0  0  0  0  0  0  0  0  0  0  0
    1.6680   16.4960   19.3340 C   0  0  0  0  0  0  0  0  0  0  0  0
    2.8320   17.8770   17.7080 C   0  0  0  0  0  0  0  0  0  0  0  0
    2.6910   17.3840   19.0140 C   0  0  0  0  0  0  0  0  0  0  0  0
    1.5180   15.9890   20.7510 C   0  0  0  0  0  0  0  0  0  0  0  0
    3.9140   18.7870   17.3320 C   0  0  0  0  0  0  0  0  0  0  0  0
    4.2520   18.9570   16.1620 O   0  0  0  0  0  0  0  0  0  0  0  0
    4.5930   19.4550   18.3210 N   0  0  0  0  0  0  0  0  0  0  0  0
    5.6860   20.3900   18.0640 C   0  0  2  0  0  0  0  0  0  0  0  0
    6.8330   20.1940   19.0700 C   0  0  0  0  0  0  0  0  0  0  0  0
    5.1850   21.8500   18.0370 C   0  0  0  0  0  0  0  0  0  0  0  0
    5.6810   22.6020   19.1380 O   0  0  0  0  0  0  0  0  0  0  0  0
    7.8160   21.3610   18.9250 C   0  0  0  0  0  0  0  0  0  0  0  0
    7.1020   22.7060   19.1470 C   0  0  0  0  0  0  0  0  0  0  0  0
    7.1330   14.0430    9.8980 H   0  0  0  0  0  0  0  0  0  0  0  0
    6.5290   16.2650    9.0610 H   0  0  0  0  0  0  0  0  0  0  0  0
    4.3120   17.1890    9.5170 H   0  0  0  0  0  0  0  0  0  0  0  0
    3.2700   13.6170   11.5850 H   0  0  0  0  0  0  0  0  0  0  0  0
    5.5020   12.7190   11.1420 H   0  0  0  0  0  0  0  0  0  0  0  0
    3.5390   15.5670   13.1680 H   0  0  0  0  0  0  0  0  0  0  0  0
    2.7710   17.0210   13.6580 H   0  0  0  0  0  0  0  0  0  0  0  0
    0.3160   17.5150   12.5580 H   0  0  0  0  0  0  0  0  0  0  0  0
   -0.2600   16.3090   11.4650 H   0  0  0  0  0  0  0  0  0  0  0  0
    1.8620   14.1990   14.2420 H   0  0  0  0  0  0  0  0  0  0  0  0
    2.5010   15.3110   15.3820 H   0  0  0  0  0  0  0  0  0  0  0  0
   -1.2990   16.1230   13.7030 H   0  0  0  0  0  0  0  0  0  0  0  0
   -0.4960   14.6760   13.2160 H   0  0  0  0  0  0  0  0  0  0  0  0
    2.0030   17.8430   15.7470 H   0  0  0  0  0  0  0  0  0  0  0  0
    0.0040   15.4010   18.5810 H   0  0  0  0  0  0  0  0  0  0  0  0
    3.3710   17.6830   19.7690 H   0  0  0  0  0  0  0  0  0  0  0  0
    0.7030   16.5100   21.2540 H   0  0  0  0  0  0  0  0  0  0  0  0
    1.3000   14.9220   20.7500 H   0  0  0  0  0  0  0  0  0  0  0  0
    2.4320   16.1430   21.3250 H   0  0  0  0  0  0  0  0  0  0  0  0
    4.2230   19.4110   19.2820 H   0  0  0  0  0  0  0  0  0  0  0  0
    6.0960   20.1750   17.0770 H   0  0  0  0  0  0  0  0  0  0  0  0
    6.4390   20.1780   20.0870 H   0  0  0  0  0  0  0  0  0  0  0  0
    7.3460   19.2540   18.8720 H   0  0  0  0  0  0  0  0  0  0  0  0
    5.5120   22.3190   17.1080 H   0  0  0  0  0  0  0  0  0  0  0  0
    4.0940   21.8660   18.0570 H   0  0  0  0  0  0  0  0  0  0  0  0
    8.6290   21.2560   19.6400 H   0  0  0  0  0  0  0  0  0  0  0  0
    8.2440   21.3460   17.9220 H   0  0  0  0  0  0  0  0  0  0  0  0
    7.4230   23.4100   18.3790 H   0  0  0  0  0  0  0  0  0  0  0  0
    7.3960   23.0980   20.1190 H   0  0  0  0  0  0  0  0  0  0  0  0
  1  2  2  0  0  0  0
  1  6  1  0  0  0  0
  1 33  1  0  0  0  0
  2  3  1  0  0  0  0
  2 34  1  0  0  0  0
  3  4  2  0  0  0  0
  3 35  1  0  0  0  0
  4  5  1  0  0  0  0
  4  7  1  0  0  0  0
  5  6  2  0  0  0  0
  5 36  1  0  0  0  0
  6 37  1  0  0  0  0
  7  8  1  0  0  0  0
  7  9  2  0  0  0  0
  8 10  1  0  0  0  0
  8 11  1  0  0  0  0
 10 12  1  0  0  0  0
 10 38  1  0  0  0  0
 10 39  1  0  0  0  0
 11 13  1  0  0  0  0
 11 40  1  0  0  0  0
 11 41  1  0  0  0  0
 12 14  1  0  0  0  0
 12 42  1  0  0  0  0
 12 43  1  0  0  0  0
 13 14  1  0  0  0  0
 13 44  1  0  0  0  0
 13 45  1  0  0  0  0
 14 15  1  0  0  0  0
 15 16  2  0  0  0  0
 15 17  1  0  0  0  0
 17 18  1  0  0  0  0
 17 19  2  0  0  0  0
 18 21  2  0  0  0  0
 18 46  1  0  0  0  0
 19 20  1  0  0  0  0
 19 47  1  0  0  0  0
 20 22  2  0  0  0  0
 20 23  1  0  0  0  0
 21 22  1  0  0  0  0
 21 24  1  0  0  0  0
 22 48  1  0  0  0  0
 23 49  1  0  0  0  0
 23 50  1  0  0  0  0
 23 51  1  0  0  0  0
 24 25  2  0  0  0  0
 24 26  1  0  0  0  0
 26 27  1  0  0  0  0
 26 52  1  0  0  0  0
 27 28  1  0  0  0  0
 27 29  1  0  0  0  0
 27 53  1  0  0  0  0
 28 31  1  0  0  0  0
 28 54  1  0  0  0  0
 28 55  1  0  0  0  0
 29 30  1  0  0  0  0
 29 56  1  0  0  0  0
 29 57  1  0  0  0  0
 30 32  1  0  0  0  0
 31 32  1  0  0  0  0
 31 58  1  0  0  0  0
 31 59  1  0  0  0  0
 32 60  1  0  0  0  0
 32 61  1  0  0  0  0
M  END
> <rseq>
1

> <mseq>
340

> <S>
-7.352075

> <rmsd_refine>
1.083471

> <E_conf>
46.90537

> <E_score1>
-10.80244

> <E_refine>
-41.69368

> <E_score2>
-7.352075

>  <$File>
outputs/pdb_4j58_cleaned.pdb_2024_06_17__22_47_40_V2_BS398_MIN1_/SDF/sdf_db.sdf

> <Rec_index>
1

>  <PLIF_raw>
[[26,31,31,31,31,31,31,1,6,5,4,3,2],[1504,1651,1655,1659,1657,1653,1650,820,820,820,820,820,820],[101,112,112,112,112,112,112,54,54,54,54,54,54],[3,10,10,10,10,10,10,10,10,10,10,10,10],[0.9,0.5,0.5,0.5,0.5,0.5,0.5,0.7,0.7,0.7,0.7,0.7,0.7]]

> <FP:PLIF>
2 8 15

>  <PLIF_ligidx>
[[1,6,5,4,3,2],26,[31,31,31,31,31,31]]

$$$$
340
  MOE2022           3D

 57 59  0  0  1  0  0  0  0  0999 V2000
    2.7440   16.2070   21.0000 C   0  0  0  0  0  0  0  0  0  0  0  0
    1.5390   15.6760   21.4310 C   0  0  0  0  0  0  0  0  0  0  0  0
    2.8150   16.9080   19.8040 C   0  0  0  0  0  0  0  0  0  0  0  0
    0.3990   15.8300   20.6510 C   0  0  0  0  0  0  0  0  0  0  0  0
    0.4720   16.5170   19.4430 C   0  0  0  0  0  0  0  0  0  0  0  0
    1.6770   17.0740   19.0120 C   0  0  0  0  0  0  0  0  0  0  0  0
    1.7110   17.8380   17.6940 C   0  0  1  0  0  0  0  0  0  0  0  0
    2.9430   18.6280   17.5400 N   0  0  0  0  0  0  0  0  0  0  0  0
    1.4430   16.8850   16.5080 C   0  0  0  0  0  0  0  0  0  0  0  0
    2.9600   19.9690   17.5660 C   0  0  0  0  0  0  0  0  0  0  0  0
    1.5290   17.4670   15.1330 N   0  0  0  0  0  0  0  0  0  0  0  0
    0.6460   18.4580   14.7170 C   0  0  0  0  0  0  0  0  0  0  0  0
   -0.2890   18.8590   15.5910 O   0  0  0  0  0  0  0  0  0  0  0  0
    2.4860   16.9600   14.2220 C   0  0  0  0  0  0  0  0  0  0  0  0
    4.3030   20.6330   17.9350 C   0  0  1  0  0  0  0  0  0  0  0  0
    3.3000   16.1290   14.6540 O   0  0  0  0  0  0  0  0  0  0  0  0
    2.4700   17.4500   12.8600 C   0  0  0  0  0  0  0  0  0  0  0  0
    3.3140   16.8380   11.8530 C   0  0  0  0  0  0  0  0  0  0  0  0
    3.7240   15.6840   11.8890 O   0  0  0  0  0  0  0  0  0  0  0  0
    1.9540   20.6510   17.3750 O   0  0  0  0  0  0  0  0  0  0  0  0
    0.7080   18.9950   13.4530 C   0  0  0  0  0  0  0  0  0  0  0  0
    3.6650   17.5920   10.7770 O   0  0  0  0  0  0  0  0  0  0  0  0
    5.3220   20.5710   16.7890 C   0  0  0  0  0  0  0  0  0  0  0  0
    1.6230   18.4870   12.5230 C   0  0  0  0  0  0  0  0  0  0  0  0
    4.1170   22.0180   18.3650 N   0  0  0  0  0  0  0  0  0  0  0  0
    5.0960   22.9270   18.4280 C   0  0  0  0  0  0  0  0  0  0  0  0
    6.6360   21.2800   17.1880 C   0  0  2  0  0  0  0  0  0  0  0  0
    4.9780   23.9480   19.0980 O   0  0  0  0  0  0  0  0  0  0  0  0
    4.4330   17.0670    9.6630 C   0  0  0  0  0  0  0  0  0  0  0  0
    6.3200   22.7500   17.5230 C   0  0  0  0  0  0  0  0  0  0  0  0
    7.5090   21.2550   16.0770 O   0  0  0  0  0  0  0  0  0  0  0  0
    7.3690   20.6010   18.3600 C   0  0  0  0  0  0  0  0  0  0  0  0
    3.6140   16.0780   21.5840 H   0  0  0  0  0  0  0  0  0  0  0  0
    1.5030   15.1570   22.3510 H   0  0  0  0  0  0  0  0  0  0  0  0
    3.7460   17.3130   19.5110 H   0  0  0  0  0  0  0  0  0  0  0  0
   -0.5270   15.4280   20.9700 H   0  0  0  0  0  0  0  0  0  0  0  0
   -0.4010   16.6190   18.8510 H   0  0  0  0  0  0  0  0  0  0  0  0
    0.8800   18.5260   17.7430 H   0  0  0  0  0  0  0  0  0  0  0  0
    3.8140   18.1340   17.6470 H   0  0  0  0  0  0  0  0  0  0  0  0
    2.1040   16.0390   16.6220 H   0  0  0  0  0  0  0  0  0  0  0  0
    0.4630   16.4450   16.6340 H   0  0  0  0  0  0  0  0  0  0  0  0
   -0.2070   18.3940   16.4440 H   0  0  0  0  0  0  0  0  0  0  0  0
    4.7040   20.0750   18.7810 H   0  0  0  0  0  0  0  0  0  0  0  0
    0.0480   19.7750   13.1720 H   0  0  0  0  0  0  0  0  0  0  0  0
    5.5220   19.5280   16.5540 H   0  0  0  0  0  0  0  0  0  0  0  0
    4.8980   21.0530   15.9060 H   0  0  0  0  0  0  0  0  0  0  0  0
    1.6310   18.8910   11.5420 H   0  0  0  0  0  0  0  0  0  0  0  0
    3.2420   22.2260   18.8270 H   0  0  0  0  0  0  0  0  0  0  0  0
    3.8940   16.2500    9.1820 H   0  0  0  0  0  0  0  0  0  0  0  0
    4.6040   17.8500    8.9240 H   0  0  0  0  0  0  0  0  0  0  0  0
    5.4000   16.6950   10.0040 H   0  0  0  0  0  0  0  0  0  0  0  0
    6.1130   23.2810   16.5930 H   0  0  0  0  0  0  0  0  0  0  0  0
    7.1870   23.2150   17.9940 H   0  0  0  0  0  0  0  0  0  0  0  0
    8.3440   21.6490   16.3420 H   0  0  0  0  0  0  0  0  0  0  0  0
    8.3390   21.0770   18.5190 H   0  0  0  0  0  0  0  0  0  0  0  0
    6.7950   20.6870   19.2820 H   0  0  0  0  0  0  0  0  0  0  0  0
    7.5330   19.5480   18.1380 H   0  0  0  0  0  0  0  0  0  0  0  0
  1  2  2  0  0  0  0
  1  3  1  0  0  0  0
  1 33  1  0  0  0  0
  2  4  1  0  0  0  0
  2 34  1  0  0  0  0
  3  6  2  0  0  0  0
  3 35  1  0  0  0  0
  4  5  2  0  0  0  0
  4 36  1  0  0  0  0
  5  6  1  0  0  0  0
  5 37  1  0  0  0  0
  6  7  1  0  0  0  0
  7  8  1  0  0  0  0
  7  9  1  0  0  0  0
  7 38  1  0  0  0  0
  8 10  1  0  0  0  0
  8 39  1  0  0  0  0
  9 11  1  0  0  0  0
  9 40  1  0  0  0  0
  9 41  1  0  0  0  0
 10 15  1  0  0  0  0
 10 20  2  0  0  0  0
 11 12  1  0  0  0  0
 11 14  1  0  0  0  0
 12 13  1  0  0  0  0
 12 21  2  0  0  0  0
 13 42  1  0  0  0  0
 14 16  2  0  0  0  0
 14 17  1  0  0  0  0
 15 23  1  0  0  0  0
 15 25  1  0  0  0  0
 15 43  1  0  0  0  0
 17 18  1  0  0  0  0
 17 24  2  0  0  0  0
 18 19  2  0  0  0  0
 18 22  1  0  0  0  0
 21 24  1  0  0  0  0
 21 44  1  0  0  0  0
 22 29  1  0  0  0  0
 23 27  1  0  0  0  0
 23 45  1  0  0  0  0
 23 46  1  0  0  0  0
 24 47  1  0  0  0  0
 25 26  1  0  0  0  0
 25 48  1  0  0  0  0
 26 28  2  0  0  0  0
 26 30  1  0  0  0  0
 27 30  1  0  0  0  0
 27 31  1  0  0  0  0
 27 32  1  0  0  0  0
 29 49  1  0  0  0  0
 29 50  1  0  0  0  0
 29 51  1  0  0  0  0
 30 52  1  0  0  0  0
 30 53  1  0  0  0  0
 31 54  1  0  0  0  0
 32 55  1  0  0  0  0
 32 56  1  0  0  0  0
 32 57  1  0  0  0  0
M  END
> <rseq>
1

> <mseq>
341

> <S>
-6.535606

> <rmsd_refine>
1.326126

> <E_conf>
-122.7329

> <E_score1>
-9.477773

> <E_refine>
-36.20794

> <E_score2>
-6.535606

>  <$File>
outputs/pdb_4j58_cleaned.pdb_2024_06_17__22_47_40_V2_BS398_MIN1_/SDF/sdf_db.sdf

> <Rec_index>
1

>  <PLIF_raw>
[[28,31],[1872,826],[125,54],[2,2],[1.9,1.9]]

> <FP:PLIF>
6 19 29 46

>  <PLIF_ligidx>
[31,31,28,28]

$$$$
341
  MOE2022           3D

 64 66  0  0  1  0  0  0  0  0999 V2000
    2.1080   16.2960   19.0230 O   0  0  0  0  0  0  0  0  0  0  0  0
    1.1900   16.5470   18.2430 C   0  0  0  0  0  0  0  0  0  0  0  0
    1.4380   17.3730   17.1750 N   0  0  0  0  0  0  0  0  0  0  0  0
   -0.1510   15.9770   18.3780 C   0  0  0  0  0  0  0  0  0  0  0  0
   -1.2710   16.5880   17.7920 C   0  0  0  0  0  0  0  0  0  0  0  0
   -2.5330   16.0180   17.9140 C   0  0  0  0  0  0  0  0  0  0  0  0
   -0.3350   14.7840   19.0900 C   0  0  0  0  0  0  0  0  0  0  0  0
    2.7730   17.7880   16.7480 C   0  0  1  0  0  0  0  0  0  0  0  0
   -1.5970   14.2130   19.2040 C   0  0  0  0  0  0  0  0  0  0  0  0
   -2.6970   14.8290   18.6180 C   0  0  0  0  0  0  0  0  0  0  0  0
    2.9050   17.7580   15.2220 C   0  0  0  0  0  0  0  0  0  0  0  0
    2.6000   16.5970   14.4930 C   0  0  0  0  0  0  0  0  0  0  0  0
    2.1640   15.4640   15.1150 O   0  0  0  0  0  0  0  0  0  0  0  0
    2.7450   16.5330   13.1130 C   0  0  0  0  0  0  0  0  0  0  0  0
    3.2360   17.6460   12.4380 C   0  0  0  0  0  0  0  0  0  0  0  0
    3.1520   19.1350   17.3970 C   0  0  0  0  0  0  0  0  0  0  0  0
    3.5000   17.6350   11.0790 O   0  0  0  0  0  0  0  0  0  0  0  0
    3.5280   18.8190   13.1320 C   0  0  0  0  0  0  0  0  0  0  0  0
    4.2960   19.8570   16.6670 C   0  0  1  0  0  0  0  0  0  0  0  0
    3.3820   18.8730   14.5190 C   0  0  0  0  0  0  0  0  0  0  0  0
    3.0860   16.6820   10.0480 C   0  0  0  0  0  0  0  0  0  0  0  0
    3.7710   20.1430   15.2510 C   0  0  0  0  0  0  0  0  0  0  0  0
    3.5200   15.2430   10.2770 C   0  0  0  0  0  0  0  0  0  0  0  0
    4.7540   21.1540   17.3730 C   0  0  0  0  0  0  0  0  0  0  0  0
    2.6840   14.3690   10.4700 O   0  0  0  0  0  0  0  0  0  0  0  0
    4.8540   14.9130   10.2870 N   0  0  0  0  0  0  0  0  0  0  0  0
    5.8250   15.8900   10.0220 O   0  0  0  0  0  0  0  0  0  0  0  0
    6.0220   20.9950   18.2430 C   0  0  0  0  0  0  0  0  0  0  0  0
    6.4740   22.3730   18.7500 C   0  0  0  0  0  0  0  0  0  0  0  0
    5.3490   13.5830   10.6820 C   0  0  0  0  0  0  0  0  0  0  0  0
    5.8240   20.0540   19.4400 C   0  0  0  0  0  0  0  0  0  0  0  0
    6.5810   13.0950    9.9140 C   0  0  0  0  0  0  0  0  0  0  0  0
    0.6620   17.5950   16.5340 H   0  0  0  0  0  0  0  0  0  0  0  0
   -1.1670   17.4950   17.2550 H   0  0  0  0  0  0  0  0  0  0  0  0
   -3.3720   16.4880   17.4690 H   0  0  0  0  0  0  0  0  0  0  0  0
    0.4980   14.3030   19.5330 H   0  0  0  0  0  0  0  0  0  0  0  0
    3.4830   17.0580   17.1070 H   0  0  0  0  0  0  0  0  0  0  0  0
   -1.7250   13.3040   19.7330 H   0  0  0  0  0  0  0  0  0  0  0  0
   -3.6590   14.3930   18.7050 H   0  0  0  0  0  0  0  0  0  0  0  0
    2.0630   15.6030   16.0780 H   0  0  0  0  0  0  0  0  0  0  0  0
    2.4940   15.6420   12.6060 H   0  0  0  0  0  0  0  0  0  0  0  0
    2.2740   19.7840   17.4040 H   0  0  0  0  0  0  0  0  0  0  0  0
    3.4270   18.9410   18.4320 H   0  0  0  0  0  0  0  0  0  0  0  0
    3.8810   19.6640   12.6000 H   0  0  0  0  0  0  0  0  0  0  0  0
    5.1480   19.1830   16.5810 H   0  0  0  0  0  0  0  0  0  0  0  0
    2.0100   16.7330    9.9500 H   0  0  0  0  0  0  0  0  0  0  0  0
    3.4960   17.0300    9.1090 H   0  0  0  0  0  0  0  0  0  0  0  0
    2.9020   20.8010   15.3030 H   0  0  0  0  0  0  0  0  0  0  0  0
    4.5500   20.6530   14.6820 H   0  0  0  0  0  0  0  0  0  0  0  0
    4.9800   21.9020   16.6120 H   0  0  0  0  0  0  0  0  0  0  0  0
    3.9380   21.5500   17.9800 H   0  0  0  0  0  0  0  0  0  0  0  0
    6.6520   15.4030    9.8330 H   0  0  0  0  0  0  0  0  0  0  0  0
    6.8230   20.5890   17.6220 H   0  0  0  0  0  0  0  0  0  0  0  0
    7.3680   22.2700   19.3670 H   0  0  0  0  0  0  0  0  0  0  0  0
    6.7110   23.0190   17.9040 H   0  0  0  0  0  0  0  0  0  0  0  0
    5.6800   22.8340   19.3370 H   0  0  0  0  0  0  0  0  0  0  0  0
    5.5720   13.5980   11.7380 H   0  0  0  0  0  0  0  0  0  0  0  0
    4.5650   12.8460   10.5730 H   0  0  0  0  0  0  0  0  0  0  0  0
    6.7270   20.0330   20.0510 H   0  0  0  0  0  0  0  0  0  0  0  0
    4.9840   20.3900   20.0470 H   0  0  0  0  0  0  0  0  0  0  0  0
    5.6310   19.0440   19.0850 H   0  0  0  0  0  0  0  0  0  0  0  0
    7.4400   13.7260   10.1370 H   0  0  0  0  0  0  0  0  0  0  0  0
    6.8280   12.0760   10.2150 H   0  0  0  0  0  0  0  0  0  0  0  0
    6.3930   13.1040    8.8400 H   0  0  0  0  0  0  0  0  0  0  0  0
  1  2  2  0  0  0  0
  2  3  1  0  0  0  0
  2  4  1  0  0  0  0
  3  8  1  0  0  0  0
  3 33  1  0  0  0  0
  4  5  2  0  0  0  0
  4  7  1  0  0  0  0
  5  6  1  0  0  0  0
  5 34  1  0  0  0  0
  6 10  2  0  0  0  0
  6 35  1  0  0  0  0
  7  9  2  0  0  0  0
  7 36  1  0  0  0  0
  8 11  1  0  0  0  0
  8 16  1  0  0  0  0
  8 37  1  0  0  0  0
  9 10  1  0  0  0  0
  9 38  1  0  0  0  0
 10 39  1  0  0  0  0
 11 12  1  0  0  0  0
 11 20  2  0  0  0  0
 12 13  1  0  0  0  0
 12 14  2  0  0  0  0
 13 40  1  0  0  0  0
 14 15  1  0  0  0  0
 14 41  1  0  0  0  0
 15 17  1  0  0  0  0
 15 18  2  0  0  0  0
 16 19  1  0  0  0  0
 16 42  1  0  0  0  0
 16 43  1  0  0  0  0
 17 21  1  0  0  0  0
 18 20  1  0  0  0  0
 18 44  1  0  0  0  0
 19 22  1  0  0  0  0
 19 24  1  0  0  0  0
 19 45  1  0  0  0  0
 20 22  1  0  0  0  0
 21 23  1  0  0  0  0
 21 46  1  0  0  0  0
 21 47  1  0  0  0  0
 22 48  1  0  0  0  0
 22 49  1  0  0  0  0
 23 25  2  0  0  0  0
 23 26  1  0  0  0  0
 24 28  1  0  0  0  0
 24 50  1  0  0  0  0
 24 51  1  0  0  0  0
 26 27  1  0  0  0  0
 26 30  1  0  0  0  0
 27 52  1  0  0  0  0
 28 29  1  0  0  0  0
 28 31  1  0  0  0  0
 28 53  1  0  0  0  0
 29 54  1  0  0  0  0
 29 55  1  0  0  0  0
 29 56  1  0  0  0  0
 30 32  1  0  0  0  0
 30 57  1  0  0  0  0
 30 58  1  0  0  0  0
 31 59  1  0  0  0  0
 31 60  1  0  0  0  0
 31 61  1  0  0  0  0
 32 62  1  0  0  0  0
 32 63  1  0  0  0  0
 32 64  1  0  0  0  0
M  END
> <rseq>
1

> <mseq>
342

> <S>
-6.832685

> <rmsd_refine>
1.791113

> <E_conf>
-5.410924

> <E_score1>
-11.76826

> <E_refine>
-38.75927

> <E_score2>
-6.832685

>  <$File>
outputs/pdb_4j58_cleaned.pdb_2024_06_17__22_47_40_V2_BS398_MIN1_/SDF/sdf_db.sdf

> <Rec_index>
1

>  <PLIF_raw>
[[],[],[],[],[]]

>  <PLIF_ligidx>
[]

$$$$
342
  MOE2022           3D

 68 72  0  0  1  0  0  0  0  0999 V2000
    2.6260   16.4280   20.5560 C   0  0  0  0  0  0  0  0  0  0  0  0
    1.3590   15.8750   20.6850 C   0  0  0  0  0  0  0  0  0  0  0  0
    2.9140   17.2700   19.4870 C   0  0  0  0  0  0  0  0  0  0  0  0
    0.3800   16.1600   19.7400 C   0  0  0  0  0  0  0  0  0  0  0  0
    0.6680   17.0030   18.6700 C   0  0  0  0  0  0  0  0  0  0  0  0
    1.9350   17.5710   18.5380 C   0  0  0  0  0  0  0  0  0  0  0  0
    2.2470   18.4810   17.3580 C   0  0  1  0  0  0  0  0  0  0  0  0
    3.0240   19.6480   17.7960 N   0  0  0  0  0  0  0  0  0  0  0  0
    2.8830   17.6720   16.2310 C   0  0  0  0  0  0  0  0  0  0  0  0
    3.4740   20.6460   17.0230 C   0  0  0  0  0  0  0  0  0  0  0  0
    2.0430   16.8650   15.5650 N   0  0  0  0  0  0  0  0  0  0  0  0
    3.1890   20.7180   15.8270 O   0  0  0  0  0  0  0  0  0  0  0  0
    4.2950   21.7670   17.7240 C   0  0  2  0  0  0  0  0  0  0  0  0
    4.0940   17.6710   16.0180 O   0  0  0  0  0  0  0  0  0  0  0  0
    2.4630   15.8790   14.5820 C   0  0  1  0  0  0  0  0  0  0  0  0
    5.2910   21.1980   18.7820 C   0  0  0  0  0  0  0  0  0  0  0  0
    3.3140   22.7250   18.4320 C   0  0  0  0  0  0  0  0  0  0  0  0
    5.1210   22.6050   16.6960 C   0  0  1  0  0  0  0  0  0  0  0  0
    5.9540   23.5630   17.3520 O   0  0  0  0  0  0  0  0  0  0  0  0
    6.1420   21.7400   15.9540 C   0  0  0  0  0  0  0  0  0  0  0  0
    6.5550   20.5880   18.1390 C   0  0  1  0  0  0  0  0  0  0  0  0
    7.1540   21.5410   17.0740 C   0  0  2  0  0  0  0  0  0  0  0  0
    7.5900   20.2330   19.2150 C   0  0  0  0  0  0  0  0  0  0  0  0
    1.2920   15.0950   13.9880 C   0  0  0  0  0  0  0  0  0  0  0  0
    3.0960   16.5050   13.4580 O   0  0  0  0  0  0  0  0  0  0  0  0
    1.5940   14.9460   12.4990 C   0  0  0  0  0  0  0  0  0  0  0  0
    2.3820   16.2370   12.2330 C   0  0  1  0  0  0  0  0  0  0  0  0
    7.2540   23.0030   17.5290 C   0  0  0  0  0  0  0  0  0  0  0  0
    1.5370   17.4750   11.9280 C   0  0  0  0  0  0  0  0  0  0  0  0
    3.3610   16.2070   11.0470 C   0  0  0  0  0  0  0  0  0  0  0  0
    3.2040   17.5880   10.4020 C   0  0  0  0  0  0  0  0  0  0  0  0
    2.4920   18.4390   11.3680 N   0  3  0  0  0  0  0  0  0  0  0  0
    3.3750   16.2050   21.2710 H   0  0  0  0  0  0  0  0  0  0  0  0
    1.1450   15.2370   21.5010 H   0  0  0  0  0  0  0  0  0  0  0  0
    3.8830   17.6870   19.4020 H   0  0  0  0  0  0  0  0  0  0  0  0
   -0.5860   15.7360   19.8330 H   0  0  0  0  0  0  0  0  0  0  0  0
   -0.0860   17.2140   17.9560 H   0  0  0  0  0  0  0  0  0  0  0  0
    1.3000   18.8550   16.9900 H   0  0  0  0  0  0  0  0  0  0  0  0
    3.2090   19.7050   18.7870 H   0  0  0  0  0  0  0  0  0  0  0  0
    1.0780   16.8400   15.8560 H   0  0  0  0  0  0  0  0  0  0  0  0
    3.1850   15.2000   15.0170 H   0  0  0  0  0  0  0  0  0  0  0  0
    5.6020   22.0080   19.4410 H   0  0  0  0  0  0  0  0  0  0  0  0
    4.8120   20.4570   19.4200 H   0  0  0  0  0  0  0  0  0  0  0  0
    2.6310   23.1580   17.7000 H   0  0  0  0  0  0  0  0  0  0  0  0
    2.7270   22.1890   19.1760 H   0  0  0  0  0  0  0  0  0  0  0  0
    3.8510   23.5330   18.9290 H   0  0  0  0  0  0  0  0  0  0  0  0
    4.4520   23.0980   15.9900 H   0  0  0  0  0  0  0  0  0  0  0  0
    5.7220   20.8010   15.6050 H   0  0  0  0  0  0  0  0  0  0  0  0
    6.5790   22.2960   15.1220 H   0  0  0  0  0  0  0  0  0  0  0  0
    6.2670   19.6610   17.6430 H   0  0  0  0  0  0  0  0  0  0  0  0
    8.1040   21.1650   16.6900 H   0  0  0  0  0  0  0  0  0  0  0  0
    8.4600   19.7670   18.7500 H   0  0  0  0  0  0  0  0  0  0  0  0
    7.9090   21.1280   19.7490 H   0  0  0  0  0  0  0  0  0  0  0  0
    7.1560   19.5300   19.9250 H   0  0  0  0  0  0  0  0  0  0  0  0
    1.1780   14.1250   14.4690 H   0  0  0  0  0  0  0  0  0  0  0  0
    0.3690   15.6660   14.1070 H   0  0  0  0  0  0  0  0  0  0  0  0
    2.2370   14.0780   12.3440 H   0  0  0  0  0  0  0  0  0  0  0  0
    0.6880   14.8750   11.8970 H   0  0  0  0  0  0  0  0  0  0  0  0
    7.9570   23.5330   16.8870 H   0  0  0  0  0  0  0  0  0  0  0  0
    7.5790   23.0800   18.5660 H   0  0  0  0  0  0  0  0  0  0  0  0
    0.7900   17.2180   11.1750 H   0  0  0  0  0  0  0  0  0  0  0  0
    1.0530   17.8610   12.8260 H   0  0  0  0  0  0  0  0  0  0  0  0
    4.3820   16.0430   11.3870 H   0  0  0  0  0  0  0  0  0  0  0  0
    3.0790   15.4380   10.3270 H   0  0  0  0  0  0  0  0  0  0  0  0
    4.1640   18.0190   10.1130 H   0  0  0  0  0  0  0  0  0  0  0  0
    2.5760   17.4690    9.5170 H   0  0  0  0  0  0  0  0  0  0  0  0
    2.0560   19.2490   10.9500 H   0  0  0  0  0  0  0  0  0  0  0  0
    3.1280   18.7060   12.1090 H   0  0  0  0  0  0  0  0  0  0  0  0
  1  2  2  0  0  0  0
  1  3  1  0  0  0  0
  1 33  1  0  0  0  0
  2  4  1  0  0  0  0
  2 34  1  0  0  0  0
  3  6  2  0  0  0  0
  3 35  1  0  0  0  0
  4  5  2  0  0  0  0
  4 36  1  0  0  0  0
  5  6  1  0  0  0  0
  5 37  1  0  0  0  0
  6  7  1  0  0  0  0
  7  8  1  0  0  0  0
  7  9  1  0  0  0  0
  7 38  1  0  0  0  0
  8 10  1  0  0  0  0
  8 39  1  0  0  0  0
  9 11  1  0  0  0  0
  9 14  2  0  0  0  0
 10 12  2  0  0  0  0
 10 13  1  0  0  0  0
 11 15  1  0  0  0  0
 11 40  1  0  0  0  0
 13 16  1  0  0  0  0
 13 17  1  0  0  0  0
 13 18  1  0  0  0  0
 15 24  1  0  0  0  0
 15 25  1  0  0  0  0
 15 41  1  0  0  0  0
 16 21  1  0  0  0  0
 16 42  1  0  0  0  0
 16 43  1  0  0  0  0
 17 44  1  0  0  0  0
 17 45  1  0  0  0  0
 17 46  1  0  0  0  0
 18 19  1  0  0  0  0
 18 20  1  0  0  0  0
 18 47  1  0  0  0  0
 19 28  1  0  0  0  0
 20 22  1  0  0  0  0
 20 48  1  0  0  0  0
 20 49  1  0  0  0  0
 21 22  1  0  0  0  0
 21 23  1  0  0  0  0
 21 50  1  0  0  0  0
 22 28  1  0  0  0  0
 22 51  1  0  0  0  0
 23 52  1  0  0  0  0
 23 53  1  0  0  0  0
 23 54  1  0  0  0  0
 24 26  1  0  0  0  0
 24 55  1  0  0  0  0
 24 56  1  0  0  0  0
 25 27  1  0  0  0  0
 26 27  1  0  0  0  0
 26 57  1  0  0  0  0
 26 58  1  0  0  0  0
 27 29  1  0  0  0  0
 27 30  1  0  0  0  0
 28 59  1  0  0  0  0
 28 60  1  0  0  0  0
 29 32  1  0  0  0  0
 29 61  1  0  0  0  0
 29 62  1  0  0  0  0
 30 31  1  0  0  0  0
 30 63  1  0  0  0  0
 30 64  1  0  0  0  0
 31 32  1  0  0  0  0
 31 65  1  0  0  0  0
 31 66  1  0  0  0  0
 32 67  1  0  0  0  0
 32 68  1  0  0  0  0
M  CHG  1  32   1
M  END
> <rseq>
1

> <mseq>
343

> <S>
-7.06323

> <rmsd_refine>
1.114662

> <E_conf>
-13.55354

> <E_score1>
-9.351098

> <E_refine>
-37.72901

> <E_score2>
-7.06323

>  <$File>
outputs/pdb_4j58_cleaned.pdb_2024_06_17__22_47_40_V2_BS398_MIN1_/SDF/sdf_db.sdf

> <Rec_index>
1

>  <PLIF_raw>
[[8,14],[1504,954],[101,62],[3,2],[2.4,1.2]]

> <FP:PLIF>
20 8 10

>  <PLIF_ligidx>
[14,8,8]

$$$$
343
  MOE2022           3D

 60 63  0  0  1  0  0  0  0  0999 V2000
    2.5200   17.1780   19.6850 O   0  0  0  0  0  0  0  0  0  0  0  0
    1.6800   17.4150   18.8160 C   0  0  0  0  0  0  0  0  0  0  0  0
    1.9180   18.4360   17.9280 N   0  0  0  0  0  0  0  0  0  0  0  0
    0.4730   16.6030   18.6230 C   0  0  0  0  0  0  0  0  0  0  0  0
   -0.5490   17.0000   17.7440 C   0  0  0  0  0  0  0  0  0  0  0  0
   -1.6550   16.1870   17.5270 C   0  0  0  0  0  0  0  0  0  0  0  0
    0.3440   15.3720   19.2820 C   0  0  0  0  0  0  0  0  0  0  0  0
    3.2330   18.6450   17.3150 C   0  0  1  0  0  0  0  0  0  0  0  0
   -0.7590   14.5560   19.0530 C   0  0  0  0  0  0  0  0  0  0  0  0
   -1.7590   14.9630   18.1770 C   0  0  0  0  0  0  0  0  0  0  0  0
    3.2750   17.9400   15.9470 C   0  0  0  0  0  0  0  0  0  0  0  0
    3.1380   16.5480   15.8600 C   0  0  0  0  0  0  0  0  0  0  0  0
    3.1700   15.7890   16.9810 O   0  0  0  0  0  0  0  0  0  0  0  0
    3.0020   15.8930   14.6440 C   0  0  0  0  0  0  0  0  0  0  0  0
    3.0830   16.6340   13.4760 C   0  0  0  0  0  0  0  0  0  0  0  0
    3.5540   20.1530   17.2570 C   0  0  0  0  0  0  0  0  0  0  0  0
    2.9570   15.9300   12.3020 O   0  0  0  0  0  0  0  0  0  0  0  0
    3.3070   18.0130   13.5180 C   0  0  0  0  0  0  0  0  0  0  0  0
    4.4830   20.5070   16.0880 C   0  0  1  0  0  0  0  0  0  0  0  0
    3.4210   18.6600   14.7520 C   0  0  0  0  0  0  0  0  0  0  0  0
    3.4400   16.2910   10.9900 C   0  0  1  0  0  0  0  0  0  0  0  0
    3.7330   20.1410   14.7990 C   0  0  0  0  0  0  0  0  0  0  0  0
    4.0850   15.0440   10.3640 C   0  0  0  0  0  0  0  0  0  0  0  0
    4.9680   21.9580   16.0650 C   0  0  0  0  0  0  0  0  0  0  0  0
    6.0810   22.1530   15.5250 O   0  0  0  0  0  0  0  0  0  0  0  0
    2.2640   16.8230   10.1530 C   0  0  0  0  0  0  0  0  0  0  0  0
    5.1850   15.3140    9.3260 C   0  0  1  0  0  0  0  0  0  0  0  0
    4.2350   22.8400   16.5630 O   0  5  0  0  0  0  0  0  0  0  0  0
    4.9170   16.4440    8.3200 C   0  0  0  0  0  0  0  0  0  0  0  0
    3.4620   16.5940    7.8540 C   0  0  0  0  0  0  0  0  0  0  0  0
    6.3880   15.5980   10.0100 O   0  0  0  0  0  0  0  0  0  0  0  0
    2.6290   17.4660    8.8080 C   0  0  0  0  0  0  0  0  0  0  0  0
    1.1420   18.6970   17.3060 H   0  0  0  0  0  0  0  0  0  0  0  0
   -0.4910   17.9260   17.2320 H   0  0  0  0  0  0  0  0  0  0  0  0
   -2.4180   16.4970   16.8610 H   0  0  0  0  0  0  0  0  0  0  0  0
    1.1040   15.0470   19.9460 H   0  0  0  0  0  0  0  0  0  0  0  0
    3.9920   18.1940   17.9360 H   0  0  0  0  0  0  0  0  0  0  0  0
   -0.8400   13.6180   19.5340 H   0  0  0  0  0  0  0  0  0  0  0  0
   -2.5990   14.3390   18.0050 H   0  0  0  0  0  0  0  0  0  0  0  0
    2.8370   14.8830   16.8170 H   0  0  0  0  0  0  0  0  0  0  0  0
    2.8550   14.8460   14.6020 H   0  0  0  0  0  0  0  0  0  0  0  0
    2.6270   20.7190   17.1510 H   0  0  0  0  0  0  0  0  0  0  0  0
    4.0190   20.4470   18.1990 H   0  0  0  0  0  0  0  0  0  0  0  0
    3.3950   18.5670   12.6200 H   0  0  0  0  0  0  0  0  0  0  0  0
    5.3680   19.8780   16.1770 H   0  0  0  0  0  0  0  0  0  0  0  0
    4.1930   17.0680   11.1190 H   0  0  0  0  0  0  0  0  0  0  0  0
    2.8040   20.7100   14.7350 H   0  0  0  0  0  0  0  0  0  0  0  0
    4.3540   20.4050   13.9420 H   0  0  0  0  0  0  0  0  0  0  0  0
    4.5220   14.4400   11.1620 H   0  0  0  0  0  0  0  0  0  0  0  0
    3.3080   14.4310    9.9060 H   0  0  0  0  0  0  0  0  0  0  0  0
    1.5620   16.0070    9.9740 H   0  0  0  0  0  0  0  0  0  0  0  0
    1.7400   17.5740   10.7450 H   0  0  0  0  0  0  0  0  0  0  0  0
    5.3310   14.3920    8.7620 H   0  0  0  0  0  0  0  0  0  0  0  0
    5.2340   17.3940    8.7450 H   0  0  0  0  0  0  0  0  0  0  0  0
    5.5400   16.2570    7.4440 H   0  0  0  0  0  0  0  0  0  0  0  0
    3.4750   17.0930    6.8840 H   0  0  0  0  0  0  0  0  0  0  0  0
    2.9970   15.6170    7.7200 H   0  0  0  0  0  0  0  0  0  0  0  0
    6.6560   14.8090   10.4900 H   0  0  0  0  0  0  0  0  0  0  0  0
    1.6970   17.7230    8.3020 H   0  0  0  0  0  0  0  0  0  0  0  0
    3.1610   18.4000    8.9960 H   0  0  0  0  0  0  0  0  0  0  0  0
  1  2  2  0  0  0  0
  2  3  1  0  0  0  0
  2  4  1  0  0  0  0
  3  8  1  0  0  0  0
  3 33  1  0  0  0  0
  4  5  2  0  0  0  0
  4  7  1  0  0  0  0
  5  6  1  0  0  0  0
  5 34  1  0  0  0  0
  6 10  2  0  0  0  0
  6 35  1  0  0  0  0
  7  9  2  0  0  0  0
  7 36  1  0  0  0  0
  8 11  1  0  0  0  0
  8 16  1  0  0  0  0
  8 37  1  0  0  0  0
  9 10  1  0  0  0  0
  9 38  1  0  0  0  0
 10 39  1  0  0  0  0
 11 12  1  0  0  0  0
 11 20  2  0  0  0  0
 12 13  1  0  0  0  0
 12 14  2  0  0  0  0
 13 40  1  0  0  0  0
 14 15  1  0  0  0  0
 14 41  1  0  0  0  0
 15 17  1  0  0  0  0
 15 18  2  0  0  0  0
 16 19  1  0  0  0  0
 16 42  1  0  0  0  0
 16 43  1  0  0  0  0
 17 21  1  0  0  0  0
 18 20  1  0  0  0  0
 18 44  1  0  0  0  0
 19 22  1  0  0  0  0
 19 24  1  0  0  0  0
 19 45  1  0  0  0  0
 20 22  1  0  0  0  0
 21 23  1  0  0  0  0
 21 26  1  0  0  0  0
 21 46  1  0  0  0  0
 22 47  1  0  0  0  0
 22 48  1  0  0  0  0
 23 27  1  0  0  0  0
 23 49  1  0  0  0  0
 23 50  1  0  0  0  0
 24 25  2  0  0  0  0
 24 28  1  0  0  0  0
 26 32  1  0  0  0  0
 26 51  1  0  0  0  0
 26 52  1  0  0  0  0
 27 29  1  0  0  0  0
 27 31  1  0  0  0  0
 27 53  1  0  0  0  0
 29 30  1  0  0  0  0
 29 54  1  0  0  0  0
 29 55  1  0  0  0  0
 30 32  1  0  0  0  0
 30 56  1  0  0  0  0
 30 57  1  0  0  0  0
 31 58  1  0  0  0  0
 32 59  1  0  0  0  0
 32 60  1  0  0  0  0
M  CHG  1  28  -1
M  END
> <rseq>
1

> <mseq>
344

> <S>
-6.140387

> <rmsd_refine>
1.901183

> <E_conf>
-135.8232

> <E_score1>
-11.58261

> <E_refine>
-36.22604

> <E_score2>
-6.140387

>  <$File>
outputs/pdb_4j58_cleaned.pdb_2024_06_17__22_47_40_V2_BS398_MIN1_/SDF/sdf_db.sdf

> <Rec_index>
1

>  <PLIF_raw>
[[13,25,31,25,4,7,9,10,6,5],[1071,826,823,826,1074,1074,1074,1074,1074,1074],[71,54,54,54,72,72,72,72,72,72],[3,2,2,7,10,10,10,10,10,10],[2.5,0.7,2,1.581459969,0.5,0.5,0.5,0.5,0.5,0.5]]

> <FP:PLIF>
6 19 1 7 14 48

>  <PLIF_ligidx>
[[25,31],31,25,13,13,[4,7,9,10,6,5]]

$$$$
344
  MOE2022           3D

 59 61  0  0  1  0  0  0  0  0999 V2000
    1.4830   16.1060   20.4210 C   0  0  0  0  0  0  0  0  0  0  0  0
    0.1430   15.7630   20.2780 C   0  0  0  0  0  0  0  0  0  0  0  0
    2.1730   16.6700   19.3520 C   0  0  0  0  0  0  0  0  0  0  0  0
   -0.5030   15.9720   19.0650 C   0  0  0  0  0  0  0  0  0  0  0  0
    0.1840   16.5460   18.0000 C   0  0  0  0  0  0  0  0  0  0  0  0
    1.5240   16.9100   18.1360 C   0  0  0  0  0  0  0  0  0  0  0  0
    2.2440   17.5350   16.9510 C   0  0  1  0  0  0  0  0  0  0  0  0
    3.2630   18.5050   17.3860 N   0  0  0  0  0  0  0  0  0  0  0  0
    2.8040   16.4670   16.0170 C   0  0  0  0  0  0  0  0  0  0  0  0
    4.0230   19.2860   16.5460 C   0  0  0  0  0  0  0  0  0  0  0  0
    2.3100   16.4230   14.7680 N   0  0  0  0  0  0  0  0  0  0  0  0
    3.7400   19.2700   15.3470 O   0  0  0  0  0  0  0  0  0  0  0  0
    5.1370   20.0580   17.1160 C   0  0  0  0  0  0  0  0  0  0  0  0
    3.6960   15.7020   16.3780 O   0  0  0  0  0  0  0  0  0  0  0  0
    2.8140   15.5280   13.7320 C   0  0  1  0  0  0  0  0  0  0  0  0
    1.8150   14.4510   13.3170 C   0  0  0  0  0  0  0  0  0  0  0  0
    3.1500   16.2260   12.4180 C   0  0  0  0  0  0  0  0  0  0  0  0
    5.6000   19.7900   18.4200 C   0  0  0  0  0  0  0  0  0  0  0  0
    2.1760   14.1260   11.8600 C   0  0  0  0  0  0  0  0  0  0  0  0
    5.8140   21.0580   16.3780 C   0  0  0  0  0  0  0  0  0  0  0  0
    3.1040   15.1910   11.3410 N   0  3  1  0  0  0  0  0  0  0  0  0
    6.7250   20.4360   18.9160 C   0  0  0  0  0  0  0  0  0  0  0  0
    5.3780   21.4450   15.1410 O   0  0  0  0  0  0  0  0  0  0  0  0
    7.1360   20.1430   20.1900 O   0  0  0  0  0  0  0  0  0  0  0  0
    7.4200   21.3660   18.1320 C   0  0  0  0  0  0  0  0  0  0  0  0
    8.5660   21.9620   18.5830 O   0  0  0  0  0  0  0  0  0  0  0  0
    6.9530   21.6970   16.8670 C   0  0  0  0  0  0  0  0  0  0  0  0
    2.7720   15.7120    9.9700 C   0  0  0  0  0  0  0  0  0  0  0  0
    3.7640   16.7240    9.3730 C   0  0  0  0  0  0  0  0  0  0  0  0
    5.1770   16.1690    9.1860 C   0  0  0  0  0  0  0  0  0  0  0  0
    5.6710   16.1370    7.9500 N   0  0  0  0  0  0  0  0  0  0  0  0
    5.8270   15.7780   10.1510 O   0  0  0  0  0  0  0  0  0  0  0  0
    1.9800   15.9400   21.3410 H   0  0  0  0  0  0  0  0  0  0  0  0
   -0.3900   15.3460   21.0900 H   0  0  0  0  0  0  0  0  0  0  0  0
    3.1960   16.9150   19.4730 H   0  0  0  0  0  0  0  0  0  0  0  0
   -1.5210   15.7020   18.9530 H   0  0  0  0  0  0  0  0  0  0  0  0
   -0.3200   16.7060   17.0820 H   0  0  0  0  0  0  0  0  0  0  0  0
    1.5040   18.0990   16.3980 H   0  0  0  0  0  0  0  0  0  0  0  0
    3.4460   18.5510   18.4000 H   0  0  0  0  0  0  0  0  0  0  0  0
    1.5790   17.0710   14.5130 H   0  0  0  0  0  0  0  0  0  0  0  0
    3.7250   15.0280   14.0610 H   0  0  0  0  0  0  0  0  0  0  0  0
    1.8970   13.5690   13.9490 H   0  0  0  0  0  0  0  0  0  0  0  0
    0.7990   14.8470   13.3490 H   0  0  0  0  0  0  0  0  0  0  0  0
    2.4140   17.0010   12.2500 H   0  0  0  0  0  0  0  0  0  0  0  0
    4.0950   16.7440   12.4870 H   0  0  0  0  0  0  0  0  0  0  0  0
    5.1100   19.0790   19.0330 H   0  0  0  0  0  0  0  0  0  0  0  0
    2.6320   13.1450   11.8160 H   0  0  0  0  0  0  0  0  0  0  0  0
    1.2680   14.0380   11.2790 H   0  0  0  0  0  0  0  0  0  0  0  0
    4.0270   14.7770   11.2940 H   0  0  0  0  0  0  0  0  0  0  0  0
    4.5610   20.9550   14.9070 H   0  0  0  0  0  0  0  0  0  0  0  0
    7.9710   20.5990   20.4080 H   0  0  0  0  0  0  0  0  0  0  0  0
    8.8860   21.5690   19.4180 H   0  0  0  0  0  0  0  0  0  0  0  0
    7.4570   22.4230   16.2820 H   0  0  0  0  0  0  0  0  0  0  0  0
    2.6770   14.8960    9.2650 H   0  0  0  0  0  0  0  0  0  0  0  0
    1.7920   16.1710    9.9630 H   0  0  0  0  0  0  0  0  0  0  0  0
    3.3740   17.0450    8.4070 H   0  0  0  0  0  0  0  0  0  0  0  0
    3.8160   17.6060   10.0100 H   0  0  0  0  0  0  0  0  0  0  0  0
    6.6130   15.8060    7.8030 H   0  0  0  0  0  0  0  0  0  0  0  0
    5.1260   16.4760    7.1720 H   0  0  0  0  0  0  0  0  0  0  0  0
  1  2  2  0  0  0  0
  1  3  1  0  0  0  0
  1 33  1  0  0  0  0
  2  4  1  0  0  0  0
  2 34  1  0  0  0  0
  3  6  2  0  0  0  0
  3 35  1  0  0  0  0
  4  5  2  0  0  0  0
  4 36  1  0  0  0  0
  5  6  1  0  0  0  0
  5 37  1  0  0  0  0
  6  7  1  0  0  0  0
  7  8  1  0  0  0  0
  7  9  1  0  0  0  0
  7 38  1  0  0  0  0
  8 10  1  0  0  0  0
  8 39  1  0  0  0  0
  9 11  1  0  0  0  0
  9 14  2  0  0  0  0
 10 12  2  0  0  0  0
 10 13  1  0  0  0  0
 11 15  1  0  0  0  0
 11 40  1  0  0  0  0
 13 18  1  0  0  0  0
 13 20  2  0  0  0  0
 15 16  1  0  0  0  0
 15 17  1  0  0  0  0
 15 41  1  0  0  0  0
 16 19  1  0  0  0  0
 16 42  1  0  0  0  0
 16 43  1  0  0  0  0
 17 21  1  0  0  0  0
 17 44  1  0  0  0  0
 17 45  1  0  0  0  0
 18 22  2  0  0  0  0
 18 46  1  0  0  0  0
 19 21  1  0  0  0  0
 19 47  1  0  0  0  0
 19 48  1  0  0  0  0
 20 23  1  0  0  0  0
 20 27  1  0  0  0  0
 21 28  1  0  0  0  0
 21 49  1  0  0  0  0
 22 24  1  0  0  0  0
 22 25  1  0  0  0  0
 23 50  1  0  0  0  0
 24 51  1  0  0  0  0
 25 26  1  0  0  0  0
 25 27  2  0  0  0  0
 26 52  1  0  0  0  0
 27 53  1  0  0  0  0
 28 29  1  0  0  0  0
 28 54  1  0  0  0  0
 28 55  1  0  0  0  0
 29 30  1  0  0  0  0
 29 56  1  0  0  0  0
 29 57  1  0  0  0  0
 30 31  1  0  0  0  0
 30 32  2  0  0  0  0
 31 58  1  0  0  0  0
 31 59  1  0  0  0  0
M  CHG  1  21   1
M  END
> <rseq>
1

> <mseq>
345

> <S>
-7.244145

> <rmsd_refine>
1.765315

> <E_conf>
-61.58218

> <E_score1>
-9.34533

> <E_refine>
-45.58906

> <E_score2>
-7.244145

>  <$File>
outputs/pdb_4j58_cleaned.pdb_2024_06_17__22_47_40_V2_BS398_MIN1_/SDF/sdf_db.sdf

> <Rec_index>
1

>  <PLIF_raw>
[[14,32,26,26,26,26,26,26,1,3,6,5,4,2],[954,823,1651,1655,1659,1657,1653,1650,1519,1519,1519,1519,1519,1519],[62,54,112,112,112,112,112,112,102,102,102,102,102,102],[2,2,10,10,10,10,10,10,10,10,10,10,10,10],[1.4,2.8,2.3,2.3,2.3,2.3,2.3,2.3,0.7,0.7,0.7,0.7,0.7,0.7]]

> <FP:PLIF>
6 19 20 22 15 47

>  <PLIF_ligidx>
[32,32,14,[1,3,6,5,4,2],[26,26,26,26,26,26],[26,26,26,26,26,26]]

$$$$
345
  MOE2022           3D

 53 57  0  0  1  0  0  0  0  0999 V2000
    5.3470   15.1730    9.9370 C   0  0  0  0  0  0  0  0  0  0  0  0
    5.2050   15.9990    8.8300 C   0  0  0  0  0  0  0  0  0  0  0  0
    4.3200   15.1320   10.8740 C   0  0  0  0  0  0  0  0  0  0  0  0
    6.1930   16.0500    7.9190 F   0  0  0  0  0  0  0  0  0  0  0  0
    3.1690   15.9220   10.7110 C   0  0  0  0  0  0  0  0  0  0  0  0
    2.1190   15.9310   11.7110 C   0  0  0  0  0  0  0  0  0  0  0  0
    4.0740   16.7770    8.6270 C   0  0  0  0  0  0  0  0  0  0  0  0
    3.0550   16.7320    9.5690 C   0  0  0  0  0  0  0  0  0  0  0  0
    2.3900   15.9670   13.0670 N   0  0  0  0  0  0  0  0  0  0  0  0
    0.7530   15.9760   11.5910 C   0  0  0  0  0  0  0  0  0  0  0  0
    1.2210   16.0700   13.7700 C   0  0  0  0  0  0  0  0  0  0  0  0
    1.1820   16.2050   15.1820 N   0  0  0  0  0  0  0  0  0  0  0  0
    0.1910   16.0570   12.8670 C   0  0  0  0  0  0  0  0  0  0  0  0
    0.1860   17.1880   15.6610 C   0  0  0  0  0  0  0  0  0  0  0  0
    2.4330   16.5260   15.8950 C   0  0  0  0  0  0  0  0  0  0  0  0
    2.3300   17.9810   16.3870 C   0  0  2  0  0  0  0  0  0  0  0  0
    3.2490   18.3020   17.5780 C   0  0  1  0  0  0  0  0  0  0  0  0
    0.8410   18.0460   16.7530 C   0  0  2  0  0  0  0  0  0  0  0  0
    2.7100   18.9010   15.2090 C   0  0  0  0  0  0  0  0  0  0  0  0
    3.8190   18.6890   14.6640 O   0  5  0  0  0  0  0  0  0  0  0  0
    3.2110   19.7240   17.8850 O   0  0  0  0  0  0  0  0  0  0  0  0
    4.2880   20.4820   18.3190 C   0  0  0  0  0  0  0  0  0  0  0  0
    4.1950   21.8650   18.1790 C   0  0  0  0  0  0  0  0  0  0  0  0
    5.2540   22.6700   18.5900 C   0  0  0  0  0  0  0  0  0  0  0  0
    5.4260   19.9010   18.8830 C   0  0  0  0  0  0  0  0  0  0  0  0
    6.4800   20.7120   19.2940 C   0  0  0  0  0  0  0  0  0  0  0  0
    6.3970   22.0950   19.1440 C   0  0  0  0  0  0  0  0  0  0  0  0
    2.9080   17.4560   18.8170 C   0  0  0  0  0  0  0  0  0  0  0  0
    1.9220   19.8140   14.8770 O   0  0  0  0  0  0  0  0  0  0  0  0
    1.4130   17.3220   19.0850 C   0  0  0  0  0  0  0  0  0  0  0  0
    1.0320   16.9310   20.1870 O   0  0  0  0  0  0  0  0  0  0  0  0
    0.5550   17.4690   18.0700 N   0  0  0  0  0  0  0  0  0  0  0  0
    6.2180   14.5830   10.0630 H   0  0  0  0  0  0  0  0  0  0  0  0
    4.4040   14.4950   11.7160 H   0  0  0  0  0  0  0  0  0  0  0  0
    3.9910   17.3950    7.7700 H   0  0  0  0  0  0  0  0  0  0  0  0
    2.1880   17.3250    9.4330 H   0  0  0  0  0  0  0  0  0  0  0  0
    3.3300   15.9810   13.4920 H   0  0  0  0  0  0  0  0  0  0  0  0
    0.2200   15.9660   10.6750 H   0  0  0  0  0  0  0  0  0  0  0  0
   -0.8390   16.1160   13.1020 H   0  0  0  0  0  0  0  0  0  0  0  0
   -0.1180   17.8390   14.8520 H   0  0  0  0  0  0  0  0  0  0  0  0
   -0.7080   16.6960   16.0190 H   0  0  0  0  0  0  0  0  0  0  0  0
    2.5080   15.8510   16.7330 H   0  0  0  0  0  0  0  0  0  0  0  0
    3.3290   16.3490   15.3180 H   0  0  0  0  0  0  0  0  0  0  0  0
    4.2680   18.0980   17.2600 H   0  0  0  0  0  0  0  0  0  0  0  0
    0.4580   19.0670   16.7210 H   0  0  0  0  0  0  0  0  0  0  0  0
    3.3250   22.2970   17.7550 H   0  0  0  0  0  0  0  0  0  0  0  0
    5.1930   23.7210   18.4770 H   0  0  0  0  0  0  0  0  0  0  0  0
    5.4950   18.8550   19.0040 H   0  0  0  0  0  0  0  0  0  0  0  0
    7.3480   20.2780   19.7180 H   0  0  0  0  0  0  0  0  0  0  0  0
    7.2040   22.7090   19.4520 H   0  0  0  0  0  0  0  0  0  0  0  0
    3.2880   16.4480   18.6740 H   0  0  0  0  0  0  0  0  0  0  0  0
    3.3990   17.8750   19.6940 H   0  0  0  0  0  0  0  0  0  0  0  0
   -0.4160   17.2710   18.2610 H   0  0  0  0  0  0  0  0  0  0  0  0
  1  2  2  0  0  0  0
  1  3  1  0  0  0  0
  1 33  1  0  0  0  0
  2  4  1  0  0  0  0
  2  7  1  0  0  0  0
  3  5  2  0  0  0  0
  3 34  1  0  0  0  0
  5  6  1  0  0  0  0
  5  8  1  0  0  0  0
  6  9  1  0  0  0  0
  6 10  2  0  0  0  0
  7  8  2  0  0  0  0
  7 35  1  0  0  0  0
  8 36  1  0  0  0  0
  9 11  1  0  0  0  0
  9 37  1  0  0  0  0
 10 13  1  0  0  0  0
 10 38  1  0  0  0  0
 11 12  1  0  0  0  0
 11 13  2  0  0  0  0
 12 14  1  0  0  0  0
 12 15  1  0  0  0  0
 13 39  1  0  0  0  0
 14 18  1  0  0  0  0
 14 40  1  0  0  0  0
 14 41  1  0  0  0  0
 15 16  1  0  0  0  0
 15 42  1  0  0  0  0
 15 43  1  0  0  0  0
 16 17  1  0  0  0  0
 16 18  1  0  0  0  0
 16 19  1  0  0  0  0
 17 21  1  0  0  0  0
 17 28  1  0  0  0  0
 17 44  1  0  0  0  0
 18 32  1  0  0  0  0
 18 45  1  0  0  0  0
 19 20  1  0  0  0  0
 19 29  2  0  0  0  0
 21 22  1  0  0  0  0
 22 23  2  0  0  0  0
 22 25  1  0  0  0  0
 23 24  1  0  0  0  0
 23 46  1  0  0  0  0
 24 27  2  0  0  0  0
 24 47  1  0  0  0  0
 25 26  2  0  0  0  0
 25 48  1  0  0  0  0
 26 27  1  0  0  0  0
 26 49  1  0  0  0  0
 27 50  1  0  0  0  0
 28 30  1  0  0  0  0
 28 51  1  0  0  0  0
 28 52  1  0  0  0  0
 30 31  2  0  0  0  0
 30 32  1  0  0  0  0
 32 53  1  0  0  0  0
M  CHG  1  20  -1
M  END
> <rseq>
1

> <mseq>
346

> <S>
-5.945422

> <rmsd_refine>
1.055802

> <E_conf>
-118.6912

> <E_score1>
-11.01482

> <E_refine>
-28.00411

> <E_score2>
-5.945422

>  <$File>
outputs/pdb_4j58_cleaned.pdb_2024_06_17__22_47_40_V2_BS398_MIN1_/SDF/sdf_db.sdf

> <Rec_index>
1

>  <PLIF_raw>
[[20,20,20],[823,826,829],[54,54,54],[7,7,7],[1.574723649,3.96414277,0.5494158269]]

> <FP:PLIF>
1 16

>  <PLIF_ligidx>
[[20,20,20],20]

$$$$
346
  MOE2022           3D

 60 62  0  0  1  0  0  0  0  0999 V2000
    2.2340   16.4180   19.1110 O   0  0  0  0  0  0  0  0  0  0  0  0
    1.3520   16.5990   18.2720 C   0  0  0  0  0  0  0  0  0  0  0  0
    1.6310   17.3680   17.1700 N   0  0  0  0  0  0  0  0  0  0  0  0
    0.0130   16.0160   18.3740 C   0  0  0  0  0  0  0  0  0  0  0  0
   -1.0890   16.6020   17.7300 C   0  0  0  0  0  0  0  0  0  0  0  0
   -2.3490   16.0210   17.8150 C   0  0  0  0  0  0  0  0  0  0  0  0
   -0.1880   14.8420   19.1110 C   0  0  0  0  0  0  0  0  0  0  0  0
    2.9660   17.8130   16.7850 C   0  0  1  0  0  0  0  0  0  0  0  0
   -1.4480   14.2590   19.1870 C   0  0  0  0  0  0  0  0  0  0  0  0
   -2.5290   14.8480   18.5400 C   0  0  0  0  0  0  0  0  0  0  0  0
    3.0380   18.0450   15.2760 C   0  0  0  0  0  0  0  0  0  0  0  0
    2.7420   17.0020   14.3840 C   0  0  0  0  0  0  0  0  0  0  0  0
    2.4990   15.7350   14.8460 O   0  0  0  0  0  0  0  0  0  0  0  0
    2.6840   17.2080   13.0110 C   0  0  0  0  0  0  0  0  0  0  0  0
    2.9570   18.4780   12.5180 C   0  0  0  0  0  0  0  0  0  0  0  0
    3.3910   19.0240   17.6420 C   0  0  0  0  0  0  0  0  0  0  0  0
    2.8020   18.7370   11.1780 O   0  0  0  0  0  0  0  0  0  0  0  0
    3.3330   19.5140   13.3710 C   0  0  0  0  0  0  0  0  0  0  0  0
    4.4510   19.9150   16.9730 C   0  0  1  0  0  0  0  0  0  0  0  0
    3.3880   19.2970   14.7500 C   0  0  0  0  0  0  0  0  0  0  0  0
    3.8020   18.4230   10.1750 C   0  0  0  0  0  0  0  0  0  0  0  0
    3.8200   20.4280   15.6660 C   0  0  0  0  0  0  0  0  0  0  0  0
    3.9390   16.9500    9.8420 C   0  0  0  0  0  0  0  0  0  0  0  0
    4.9820   21.0820   17.8430 C   0  0  2  0  0  0  0  0  0  0  0  0
    2.9840   16.1770    9.8810 O   0  0  0  0  0  0  0  0  0  0  0  0
    5.1510   16.5650    9.4170 N   0  0  0  0  0  0  0  0  0  0  0  0
    5.4710   15.2310    8.9330 C   0  0  0  0  0  0  0  0  0  0  0  0
    5.9920   20.6410   18.9340 C   0  0  0  0  0  0  0  0  0  0  0  0
    3.9250   21.8430   18.4060 O   0  0  0  0  0  0  0  0  0  0  0  0
    6.1020   14.4060   10.0510 C   0  0  0  0  0  0  0  0  0  0  0  0
    6.7640   21.7460   19.4260 O   0  0  0  0  0  0  0  0  0  0  0  0
    5.3630   20.0120   20.0570 O   0  0  0  0  0  0  0  0  0  0  0  0
    0.8980   17.4690   16.4520 H   0  0  0  0  0  0  0  0  0  0  0  0
   -0.9720   17.4970   17.1760 H   0  0  0  0  0  0  0  0  0  0  0  0
   -3.1740   16.4720   17.3260 H   0  0  0  0  0  0  0  0  0  0  0  0
    0.6320   14.3840   19.6010 H   0  0  0  0  0  0  0  0  0  0  0  0
    3.6480   17.0030   16.9870 H   0  0  0  0  0  0  0  0  0  0  0  0
   -1.5890   13.3620   19.7310 H   0  0  0  0  0  0  0  0  0  0  0  0
   -3.4890   14.4030   18.5990 H   0  0  0  0  0  0  0  0  0  0  0  0
    2.2730   15.1350   14.1080 H   0  0  0  0  0  0  0  0  0  0  0  0
    2.4180   16.4180   12.3580 H   0  0  0  0  0  0  0  0  0  0  0  0
    2.5060   19.6310   17.8460 H   0  0  0  0  0  0  0  0  0  0  0  0
    3.7610   18.6420   18.5910 H   0  0  0  0  0  0  0  0  0  0  0  0
    3.5610   20.4680   12.9690 H   0  0  0  0  0  0  0  0  0  0  0  0
    5.3030   19.2930   16.7050 H   0  0  0  0  0  0  0  0  0  0  0  0
    3.5490   18.9610    9.2730 H   0  0  0  0  0  0  0  0  0  0  0  0
    4.7490   18.8360   10.4850 H   0  0  0  0  0  0  0  0  0  0  0  0
    2.9490   21.0460   15.8920 H   0  0  0  0  0  0  0  0  0  0  0  0
    4.5490   21.0480   15.1420 H   0  0  0  0  0  0  0  0  0  0  0  0
    5.5430   21.7410   17.1800 H   0  0  0  0  0  0  0  0  0  0  0  0
    5.8840   17.2570    9.3560 H   0  0  0  0  0  0  0  0  0  0  0  0
    4.5740   14.7280    8.5700 H   0  0  0  0  0  0  0  0  0  0  0  0
    6.1780   15.3180    8.1080 H   0  0  0  0  0  0  0  0  0  0  0  0
    6.6910   19.9340   18.5060 H   0  0  0  0  0  0  0  0  0  0  0  0
    3.4750   21.3060   19.0660 H   0  0  0  0  0  0  0  0  0  0  0  0
    5.4070   14.3180   10.8870 H   0  0  0  0  0  0  0  0  0  0  0  0
    6.3410   13.4100    9.6780 H   0  0  0  0  0  0  0  0  0  0  0  0
    7.0180   14.8900   10.3840 H   0  0  0  0  0  0  0  0  0  0  0  0
    7.5340   21.4170   19.9170 H   0  0  0  0  0  0  0  0  0  0  0  0
    4.7400   19.3340   19.7470 H   0  0  0  0  0  0  0  0  0  0  0  0
  1  2  2  0  0  0  0
  2  3  1  0  0  0  0
  2  4  1  0  0  0  0
  3  8  1  0  0  0  0
  3 33  1  0  0  0  0
  4  5  2  0  0  0  0
  4  7  1  0  0  0  0
  5  6  1  0  0  0  0
  5 34  1  0  0  0  0
  6 10  2  0  0  0  0
  6 35  1  0  0  0  0
  7  9  2  0  0  0  0
  7 36  1  0  0  0  0
  8 11  1  0  0  0  0
  8 16  1  0  0  0  0
  8 37  1  0  0  0  0
  9 10  1  0  0  0  0
  9 38  1  0  0  0  0
 10 39  1  0  0  0  0
 11 12  1  0  0  0  0
 11 20  2  0  0  0  0
 12 13  1  0  0  0  0
 12 14  2  0  0  0  0
 13 40  1  0  0  0  0
 14 15  1  0  0  0  0
 14 41  1  0  0  0  0
 15 17  1  0  0  0  0
 15 18  2  0  0  0  0
 16 19  1  0  0  0  0
 16 42  1  0  0  0  0
 16 43  1  0  0  0  0
 17 21  1  0  0  0  0
 18 20  1  0  0  0  0
 18 44  1  0  0  0  0
 19 22  1  0  0  0  0
 19 24  1  0  0  0  0
 19 45  1  0  0  0  0
 20 22  1  0  0  0  0
 21 23  1  0  0  0  0
 21 46  1  0  0  0  0
 21 47  1  0  0  0  0
 22 48  1  0  0  0  0
 22 49  1  0  0  0  0
 23 25  2  0  0  0  0
 23 26  1  0  0  0  0
 24 28  1  0  0  0  0
 24 29  1  0  0  0  0
 24 50  1  0  0  0  0
 26 27  1  0  0  0  0
 26 51  1  0  0  0  0
 27 30  1  0  0  0  0
 27 52  1  0  0  0  0
 27 53  1  0  0  0  0
 28 31  1  0  0  0  0
 28 32  1  0  0  0  0
 28 54  1  0  0  0  0
 29 55  1  0  0  0  0
 30 56  1  0  0  0  0
 30 57  1  0  0  0  0
 30 58  1  0  0  0  0
 31 59  1  0  0  0  0
 32 60  1  0  0  0  0
M  END
> <rseq>
1

> <mseq>
347

> <S>
-6.564022

> <rmsd_refine>
1.606604

> <E_conf>
-45.79403

> <E_score1>
-11.19105

> <E_refine>
-40.83526

> <E_score2>
-6.564022

>  <$File>
outputs/pdb_4j58_cleaned.pdb_2024_06_17__22_47_40_V2_BS398_MIN1_/SDF/sdf_db.sdf

> <Rec_index>
1

>  <PLIF_raw>
[[26,29,32,31,31,31,31,31,31],[2222,1504,1499,1651,1655,1659,1657,1653,1650],[148,101,101,112,112,112,112,112,112],[3,3,4,10,10,10,10,10,10],[2,1.5,0.9,1,1,1,1,1,1]]

> <FP:PLIF>
8 10 11 15 47 39 40

>  <PLIF_ligidx>
[29,29,32,[31,31,31,31,31,31],[31,31,31,31,31,31],26,26]

$$$$
347
  MOE2022           3D

 60 62  0  0  1  0  0  0  0  0999 V2000
    6.1400   14.4490   10.1010 C   0  0  0  0  0  0  0  0  0  0  0  0
    5.7960   15.7190    9.6510 C   0  0  0  0  0  0  0  0  0  0  0  0
    4.5450   16.2480    9.9460 C   0  0  0  0  0  0  0  0  0  0  0  0
    3.6170   15.5070   10.6900 C   0  0  0  0  0  0  0  0  0  0  0  0
    3.9700   14.2230   11.1260 C   0  0  0  0  0  0  0  0  0  0  0  0
    5.2250   13.7010   10.8340 C   0  0  0  0  0  0  0  0  0  0  0  0
    2.2880   16.0560   10.9570 C   0  0  0  0  0  0  0  0  0  0  0  0
    1.7890   16.1290   12.2540 N   0  0  0  0  0  0  0  0  0  0  0  0
    1.5840   16.4660   10.0370 O   0  0  0  0  0  0  0  0  0  0  0  0
    2.6650   16.1320   13.4460 C   0  0  0  0  0  0  0  0  0  0  0  0
    0.4240   16.6480   12.5020 C   0  0  0  0  0  0  0  0  0  0  0  0
    1.9810   15.5690   14.7040 C   0  0  0  0  0  0  0  0  0  0  0  0
   -0.2280   16.0730   13.7710 C   0  0  0  0  0  0  0  0  0  0  0  0
    0.6580   16.1690   14.9420 N   0  0  0  0  0  0  0  0  0  0  0  0
    0.2180   16.6470   16.1730 C   0  0  0  0  0  0  0  0  0  0  0  0
   -0.9920   16.8200   16.3250 O   0  0  0  0  0  0  0  0  0  0  0  0
    1.1760   16.9510   17.2320 C   0  0  0  0  0  0  0  0  0  0  0  0
    2.2270   17.8410   16.9830 C   0  0  0  0  0  0  0  0  0  0  0  0
    1.0560   16.3920   18.5230 C   0  0  0  0  0  0  0  0  0  0  0  0
   -0.0240   15.5560   18.8190 N   0  0  0  0  0  0  0  0  0  0  0  0
    2.0040   16.6690   19.5230 C   0  0  0  0  0  0  0  0  0  0  0  0
    3.0530   17.5370   19.2400 C   0  0  0  0  0  0  0  0  0  0  0  0
    3.1530   18.1390   17.9780 C   0  0  0  0  0  0  0  0  0  0  0  0
    4.1910   19.0560   17.6130 N   0  0  0  0  0  0  0  0  0  0  0  0
    5.0970   19.7470   18.3940 C   0  0  0  0  0  0  0  0  0  0  0  0
    1.8960   16.0480   20.9050 C   0  0  0  0  0  0  0  0  0  0  0  0
    5.0860   19.6870   19.6120 O   0  0  0  0  0  0  0  0  0  0  0  0
    6.0770   20.5980   17.6060 C   0  0  2  0  0  0  0  0  0  0  0  0
    7.2960   21.1130   18.4010 C   0  0  0  0  0  0  0  0  0  0  0  0
    5.3580   21.7190   16.8900 C   0  0  0  0  0  0  0  0  0  0  0  0
    5.2440   21.6120   15.6480 O   0  0  0  0  0  0  0  0  0  0  0  0
    8.2660   20.0090   18.8170 C   0  0  0  0  0  0  0  0  0  0  0  0
    4.9100   22.6640   17.5740 O   0  5  0  0  0  0  0  0  0  0  0  0
    7.0940   14.0470    9.8830 H   0  0  0  0  0  0  0  0  0  0  0  0
    6.4860   16.2780    9.0760 H   0  0  0  0  0  0  0  0  0  0  0  0
    4.2880   17.2150    9.5960 H   0  0  0  0  0  0  0  0  0  0  0  0
    3.2750   13.6430   11.6770 H   0  0  0  0  0  0  0  0  0  0  0  0
    5.4880   12.7290   11.1660 H   0  0  0  0  0  0  0  0  0  0  0  0
    3.5720   15.5750   13.2770 H   0  0  0  0  0  0  0  0  0  0  0  0
    2.9800   17.1480   13.6460 H   0  0  0  0  0  0  0  0  0  0  0  0
    0.4670   17.7250   12.5870 H   0  0  0  0  0  0  0  0  0  0  0  0
   -0.2270   16.4440   11.6630 H   0  0  0  0  0  0  0  0  0  0  0  0
    1.8550   14.5030   14.5710 H   0  0  0  0  0  0  0  0  0  0  0  0
    2.6380   15.6720   15.5540 H   0  0  0  0  0  0  0  0  0  0  0  0
   -1.1690   16.5800   13.9380 H   0  0  0  0  0  0  0  0  0  0  0  0
   -0.4790   15.0350   13.6010 H   0  0  0  0  0  0  0  0  0  0  0  0
    2.3160   18.2970   16.0310 H   0  0  0  0  0  0  0  0  0  0  0  0
   -0.3070   15.5520   19.8080 H   0  0  0  0  0  0  0  0  0  0  0  0
   -0.8120   15.6330   18.1540 H   0  0  0  0  0  0  0  0  0  0  0  0
    3.7690   17.7400   19.9870 H   0  0  0  0  0  0  0  0  0  0  0  0
    4.2510   19.2760   16.6060 H   0  0  0  0  0  0  0  0  0  0  0  0
    1.7400   14.9730   20.8310 H   0  0  0  0  0  0  0  0  0  0  0  0
    2.8070   16.2110   21.4810 H   0  0  0  0  0  0  0  0  0  0  0  0
    1.0600   16.4860   21.4490 H   0  0  0  0  0  0  0  0  0  0  0  0
    6.4720   19.9600   16.8280 H   0  0  0  0  0  0  0  0  0  0  0  0
    7.8420   21.8120   17.7650 H   0  0  0  0  0  0  0  0  0  0  0  0
    6.9580   21.6570   19.2840 H   0  0  0  0  0  0  0  0  0  0  0  0
    9.1720   20.4700   19.2070 H   0  0  0  0  0  0  0  0  0  0  0  0
    7.8140   19.3790   19.5830 H   0  0  0  0  0  0  0  0  0  0  0  0
    8.5300   19.4010   17.9530 H   0  0  0  0  0  0  0  0  0  0  0  0
  1  2  2  0  0  0  0
  1  6  1  0  0  0  0
  1 34  1  0  0  0  0
  2  3  1  0  0  0  0
  2 35  1  0  0  0  0
  3  4  2  0  0  0  0
  3 36  1  0  0  0  0
  4  5  1  0  0  0  0
  4  7  1  0  0  0  0
  5  6  2  0  0  0  0
  5 37  1  0  0  0  0
  6 38  1  0  0  0  0
  7  8  1  0  0  0  0
  7  9  2  0  0  0  0
  8 10  1  0  0  0  0
  8 11  1  0  0  0  0
 10 12  1  0  0  0  0
 10 39  1  0  0  0  0
 10 40  1  0  0  0  0
 11 13  1  0  0  0  0
 11 41  1  0  0  0  0
 11 42  1  0  0  0  0
 12 14  1  0  0  0  0
 12 43  1  0  0  0  0
 12 44  1  0  0  0  0
 13 14  1  0  0  0  0
 13 45  1  0  0  0  0
 13 46  1  0  0  0  0
 14 15  1  0  0  0  0
 15 16  2  0  0  0  0
 15 17  1  0  0  0  0
 17 18  2  0  0  0  0
 17 19  1  0  0  0  0
 18 23  1  0  0  0  0
 18 47  1  0  0  0  0
 19 20  1  0  0  0  0
 19 21  2  0  0  0  0
 20 48  1  0  0  0  0
 20 49  1  0  0  0  0
 21 22  1  0  0  0  0
 21 26  1  0  0  0  0
 22 23  2  0  0  0  0
 22 50  1  0  0  0  0
 23 24  1  0  0  0  0
 24 25  1  0  0  0  0
 24 51  1  0  0  0  0
 25 27  2  0  0  0  0
 25 28  1  0  0  0  0
 26 52  1  0  0  0  0
 26 53  1  0  0  0  0
 26 54  1  0  0  0  0
 28 29  1  0  0  0  0
 28 30  1  0  0  0  0
 28 55  1  0  0  0  0
 29 32  1  0  0  0  0
 29 56  1  0  0  0  0
 29 57  1  0  0  0  0
 30 31  2  0  0  0  0
 30 33  1  0  0  0  0
 32 58  1  0  0  0  0
 32 59  1  0  0  0  0
 32 60  1  0  0  0  0
M  CHG  1  33  -1
M  END
> <rseq>
1

> <mseq>
348

> <S>
-7.369704

> <rmsd_refine>
1.077697

> <E_conf>
-108.0389

> <E_score1>
-11.35212

> <E_refine>
-41.2859

> <E_score2>
-7.369704

>  <$File>
outputs/pdb_4j58_cleaned.pdb_2024_06_17__22_47_40_V2_BS398_MIN1_/SDF/sdf_db.sdf

> <Rec_index>
1

>  <PLIF_raw>
[[27,31,1,6,5,4,3,2],[1499,826,820,820,820,820,820,820],[101,54,54,54,54,54,54,54],[4,7,10,10,10,10,10,10],[1.4,2.050817979,0.6,0.6,0.6,0.6,0.6,0.6]]

> <FP:PLIF>
1 2 11

>  <PLIF_ligidx>
[31,[1,6,5,4,3,2],27]

$$$$
396
  MOE2022           3D

 58 61  0  0  1  0  0  0  0  0999 V2000
    3.5290   17.6640   19.5830 O   0  0  0  0  0  0  0  0  0  0  0  0
    2.5670   17.2420   18.9290 C   0  0  0  0  0  0  0  0  0  0  0  0
    1.4700   16.4930   19.4820 C   0  0  0  0  0  0  0  0  0  0  0  0
    2.5310   17.4950   17.5550 N   0  0  0  0  0  0  0  0  0  0  0  0
    0.4750   16.0610   18.6550 C   0  0  0  0  0  0  0  0  0  0  0  0
    1.5720   16.8600   16.7540 C   0  0  0  0  0  0  0  0  0  0  0  0
    0.5630   16.2420   17.2940 N   0  0  0  0  0  0  0  0  0  0  0  0
    1.8000   16.8120   15.3210 C   0  0  0  0  0  0  0  0  0  0  0  0
    3.4880   18.4780   16.9670 C   0  0  0  0  0  0  0  0  0  0  0  0
    1.4520   16.1900   20.9710 C   0  0  0  0  0  0  0  0  0  0  0  0
   -0.7390   15.2930   19.1380 C   0  0  0  0  0  0  0  0  0  0  0  0
    3.2180   19.9430   17.3640 C   0  0  1  0  0  0  0  0  0  0  0  0
    4.3870   20.5860   18.1320 C   0  0  0  0  0  0  0  0  0  0  0  0
    1.1100   17.6290   14.4140 C   0  0  0  0  0  0  0  0  0  0  0  0
    3.0430   20.9040   16.1940 C   0  0  0  0  0  0  0  0  0  0  0  0
    1.3610   17.5280   13.0490 C   0  0  0  0  0  0  0  0  0  0  0  0
    2.2990   16.6030   12.5870 C   0  0  0  0  0  0  0  0  0  0  0  0
    2.4880   20.6040   15.1380 O   0  0  0  0  0  0  0  0  0  0  0  0
    2.7380   15.8930   14.8380 C   0  0  0  0  0  0  0  0  0  0  0  0
    4.0910   22.0680   17.8720 C   0  0  2  0  0  0  0  0  0  0  0  0
    3.6190   22.0730   16.4890 N   0  0  0  0  0  0  0  0  0  0  0  0
    2.5360   16.5400   11.2240 O   0  0  0  0  0  0  0  0  0  0  0  0
    3.5830   23.2580   15.6350 C   0  0  0  0  0  0  0  0  0  0  0  0
    3.5390   15.7750   10.6410 C   0  0  0  0  0  0  0  0  0  0  0  0
    2.9830   15.7760   13.4810 C   0  0  0  0  0  0  0  0  0  0  0  0
    3.4680   14.3770   10.6100 C   0  0  0  0  0  0  0  0  0  0  0  0
    4.6310   16.4350   10.0840 C   0  0  0  0  0  0  0  0  0  0  0  0
    5.6680   15.6890    9.5250 C   0  0  0  0  0  0  0  0  0  0  0  0
    2.3800   13.7190   11.1190 O   0  0  0  0  0  0  0  0  0  0  0  0
    4.5100   13.6340   10.0620 C   0  0  0  0  0  0  0  0  0  0  0  0
    5.6120   14.2950    9.5220 C   0  0  0  0  0  0  0  0  0  0  0  0
    5.2910   22.9860   18.1670 C   0  0  0  0  0  0  0  0  0  0  0  0
    6.3400   22.8210   17.5050 O   0  0  0  0  0  0  0  0  0  0  0  0
    5.1370   23.8340   19.0750 O   0  5  0  0  0  0  0  0  0  0  0  0
    4.4930   18.2330   17.2620 H   0  0  0  0  0  0  0  0  0  0  0  0
    3.5380   18.4090   15.8910 H   0  0  0  0  0  0  0  0  0  0  0  0
    0.6840   16.7600   21.4740 H   0  0  0  0  0  0  0  0  0  0  0  0
    1.2590   15.1420   21.1490 H   0  0  0  0  0  0  0  0  0  0  0  0
    2.3960   16.4070   21.4500 H   0  0  0  0  0  0  0  0  0  0  0  0
   -1.0920   15.6440   20.0970 H   0  0  0  0  0  0  0  0  0  0  0  0
   -1.5650   15.3870   18.4470 H   0  0  0  0  0  0  0  0  0  0  0  0
   -0.5160   14.2390   19.2290 H   0  0  0  0  0  0  0  0  0  0  0  0
    2.3140   19.9910   17.9710 H   0  0  0  0  0  0  0  0  0  0  0  0
    4.3850   20.3440   19.1930 H   0  0  0  0  0  0  0  0  0  0  0  0
    5.3400   20.3120   17.6760 H   0  0  0  0  0  0  0  0  0  0  0  0
    0.3980   18.3280   14.7710 H   0  0  0  0  0  0  0  0  0  0  0  0
    0.8440   18.1490   12.3630 H   0  0  0  0  0  0  0  0  0  0  0  0
    3.2610   15.2760   15.5210 H   0  0  0  0  0  0  0  0  0  0  0  0
    3.2630   22.3740   18.5130 H   0  0  0  0  0  0  0  0  0  0  0  0
    4.5690   23.6880   15.5200 H   0  0  0  0  0  0  0  0  0  0  0  0
    3.2150   23.0320   14.6440 H   0  0  0  0  0  0  0  0  0  0  0  0
    2.9420   24.0210   16.0550 H   0  0  0  0  0  0  0  0  0  0  0  0
    3.6770   15.0570   13.1410 H   0  0  0  0  0  0  0  0  0  0  0  0
    4.6740   17.4930   10.0870 H   0  0  0  0  0  0  0  0  0  0  0  0
    6.5020   16.1810    9.0970 H   0  0  0  0  0  0  0  0  0  0  0  0
    1.6380   13.1840   11.4630 H   0  0  0  0  0  0  0  0  0  0  0  0
    4.4650   12.5760   10.0530 H   0  0  0  0  0  0  0  0  0  0  0  0
    6.4080   13.7370    9.1010 H   0  0  0  0  0  0  0  0  0  0  0  0
  1  2  2  0  0  0  0
  2  3  1  0  0  0  0
  2  4  1  0  0  0  0
  3  5  2  0  0  0  0
  3 10  1  0  0  0  0
  4  6  1  0  0  0  0
  4  9  1  0  0  0  0
  5  7  1  0  0  0  0
  5 11  1  0  0  0  0
  6  7  2  0  0  0  0
  6  8  1  0  0  0  0
  8 14  1  0  0  0  0
  8 19  2  0  0  0  0
  9 12  1  0  0  0  0
  9 35  1  0  0  0  0
  9 36  1  0  0  0  0
 10 37  1  0  0  0  0
 10 38  1  0  0  0  0
 10 39  1  0  0  0  0
 11 40  1  0  0  0  0
 11 41  1  0  0  0  0
 11 42  1  0  0  0  0
 12 13  1  0  0  0  0
 12 15  1  0  0  0  0
 12 43  1  0  0  0  0
 13 20  1  0  0  0  0
 13 44  1  0  0  0  0
 13 45  1  0  0  0  0
 14 16  2  0  0  0  0
 14 46  1  0  0  0  0
 15 18  2  0  0  0  0
 15 21  1  0  0  0  0
 16 17  1  0  0  0  0
 16 47  1  0  0  0  0
 17 22  1  0  0  0  0
 17 25  2  0  0  0  0
 19 25  1  0  0  0  0
 19 48  1  0  0  0  0
 20 21  1  0  0  0  0
 20 32  1  0  0  0  0
 20 49  1  0  0  0  0
 21 23  1  0  0  0  0
 22 24  1  0  0  0  0
 23 50  1  0  0  0  0
 23 51  1  0  0  0  0
 23 52  1  0  0  0  0
 24 26  1  0  0  0  0
 24 27  2  0  0  0  0
 25 53  1  0  0  0  0
 26 29  1  0  0  0  0
 26 30  2  0  0  0  0
 27 28  1  0  0  0  0
 27 54  1  0  0  0  0
 28 31  2  0  0  0  0
 28 55  1  0  0  0  0
 29 56  1  0  0  0  0
 30 31  1  0  0  0  0
 30 57  1  0  0  0  0
 31 58  1  0  0  0  0
 32 33  2  0  0  0  0
 32 34  1  0  0  0  0
M  CHG  1  34  -1
M  END
> <rseq>
1

> <mseq>
397

> <S>
-6.30851

> <rmsd_refine>
1.204688

> <E_conf>
-20.34556

> <E_score1>
-10.09579

> <E_refine>
-33.42832

> <E_score2>
-6.30851

>  <$File>
outputs/pdb_4j58_cleaned.pdb_2024_06_17__22_47_40_V2_BS398_MIN1_/SDF/sdf_db.sdf

> <Rec_index>
1

>  <PLIF_raw>
[[34,34,2,4,6,7,5,3],[1872,1872,954,954,954,954,954,954],[125,125,62,62,62,62,62,62],[2,7,10,10,10,10,10,10],[2.6,4.743887661,0.6,0.6,0.6,0.6,0.6,0.6]]

> <FP:PLIF>
21 29 46 13 31

>  <PLIF_ligidx>
[[2,4,6,7,5,3],34,34,34,34]

$$$$
397
  MOE2022           3D

 62 64  0  0  1  0  0  0  0  0999 V2000
    3.7100   17.7610   19.6420 O   0  0  0  0  0  0  0  0  0  0  0  0
    2.6930   17.3860   19.0510 C   0  0  0  0  0  0  0  0  0  0  0  0
    1.6930   16.5260   19.6290 C   0  0  0  0  0  0  0  0  0  0  0  0
    2.4970   17.8010   17.7310 N   0  0  0  0  0  0  0  0  0  0  0  0
    0.5980   16.1900   18.8920 C   0  0  0  0  0  0  0  0  0  0  0  0
    1.3520   17.3870   17.0310 C   0  0  0  0  0  0  0  0  0  0  0  0
    0.4570   16.6340   17.5990 N   0  0  0  0  0  0  0  0  0  0  0  0
    1.2280   17.7720   15.6370 C   0  0  0  0  0  0  0  0  0  0  0  0
    3.5440   18.6320   17.0510 C   0  0  0  0  0  0  0  0  0  0  0  0
    1.8840   16.0050   21.0450 C   0  0  0  0  0  0  0  0  0  0  0  0
   -0.5090   15.2910   19.4040 C   0  0  0  0  0  0  0  0  0  0  0  0
    3.5660   20.1400   17.3870 C   0  0  1  0  0  0  0  0  0  0  0  0
    4.6320   20.4950   18.4180 C   0  0  0  0  0  0  0  0  0  0  0  0
    0.7350   19.0350   15.2770 C   0  0  0  0  0  0  0  0  0  0  0  0
    3.6990   20.9760   16.1240 C   0  0  0  0  0  0  0  0  0  0  0  0
    0.6780   19.4170   13.9410 C   0  0  0  0  0  0  0  0  0  0  0  0
    1.1130   18.5500   12.9380 C   0  0  0  0  0  0  0  0  0  0  0  0
    4.6960   20.7880   15.3880 O   0  0  0  0  0  0  0  0  0  0  0  0
    1.6410   16.8970   14.6230 C   0  0  0  0  0  0  0  0  0  0  0  0
    2.1010   15.6440   14.9490 O   0  0  0  0  0  0  0  0  0  0  0  0
    2.7860   21.7930   15.8720 O   0  5  0  0  0  0  0  0  0  0  0  0
    5.9360   20.2160   18.2610 C   0  0  0  0  0  0  0  0  0  0  0  0
    1.6080   17.2920   13.2840 C   0  0  0  0  0  0  0  0  0  0  0  0
    6.9960   20.5540   19.2850 C   0  0  0  0  0  0  0  0  0  0  0  0
    8.1260   21.4120   18.7020 C   0  0  0  0  0  0  0  0  0  0  0  0
    2.0840   16.4100   12.3330 O   0  0  0  0  0  0  0  0  0  0  0  0
    2.5720   16.7850   11.0250 C   0  0  0  0  0  0  0  0  0  0  0  0
    3.7990   15.9910   10.6070 C   0  0  0  0  0  0  0  0  0  0  0  0
    4.0720   14.7430   11.1690 C   0  0  0  0  0  0  0  0  0  0  0  0
    4.6780   16.4930    9.6340 C   0  0  0  0  0  0  0  0  0  0  0  0
    5.2020   14.0230   10.7890 C   0  0  0  0  0  0  0  0  0  0  0  0
    4.4410   17.7250    9.0240 N   0  0  0  0  0  0  0  0  0  0  0  0
    6.0710   14.5400    9.8340 C   0  0  0  0  0  0  0  0  0  0  0  0
    5.8100   15.7710    9.2490 C   0  0  0  0  0  0  0  0  0  0  0  0
    4.5190   18.2300   17.2540 H   0  0  0  0  0  0  0  0  0  0  0  0
    3.4920   18.5170   15.9790 H   0  0  0  0  0  0  0  0  0  0  0  0
    1.1550   16.4350   21.7160 H   0  0  0  0  0  0  0  0  0  0  0  0
    1.7690   14.9310   21.0810 H   0  0  0  0  0  0  0  0  0  0  0  0
    2.8650   16.2210   21.4410 H   0  0  0  0  0  0  0  0  0  0  0  0
   -1.4150   15.4100   18.8250 H   0  0  0  0  0  0  0  0  0  0  0  0
   -0.2210   14.2520   19.3360 H   0  0  0  0  0  0  0  0  0  0  0  0
   -0.7630   15.5040   20.4320 H   0  0  0  0  0  0  0  0  0  0  0  0
    2.6060   20.3810   17.8230 H   0  0  0  0  0  0  0  0  0  0  0  0
    4.2820   20.9960   19.2820 H   0  0  0  0  0  0  0  0  0  0  0  0
    0.4160   19.7100   16.0300 H   0  0  0  0  0  0  0  0  0  0  0  0
    0.3070   20.3760   13.6840 H   0  0  0  0  0  0  0  0  0  0  0  0
    1.0600   18.8560   11.9260 H   0  0  0  0  0  0  0  0  0  0  0  0
    1.9510   15.4550   15.8980 H   0  0  0  0  0  0  0  0  0  0  0  0
    6.2900   19.7330   17.3880 H   0  0  0  0  0  0  0  0  0  0  0  0
    6.5560   21.0640   20.1300 H   0  0  0  0  0  0  0  0  0  0  0  0
    7.4120   19.6360   19.6770 H   0  0  0  0  0  0  0  0  0  0  0  0
    8.8800   21.6210   19.4600 H   0  0  0  0  0  0  0  0  0  0  0  0
    8.6100   20.8950   17.8740 H   0  0  0  0  0  0  0  0  0  0  0  0
    7.7340   22.3610   18.3350 H   0  0  0  0  0  0  0  0  0  0  0  0
    1.7750   16.6520   10.3070 H   0  0  0  0  0  0  0  0  0  0  0  0
    2.8150   17.8380   11.0390 H   0  0  0  0  0  0  0  0  0  0  0  0
    3.4230   14.3300   11.8980 H   0  0  0  0  0  0  0  0  0  0  0  0
    5.4010   13.0790   11.2260 H   0  0  0  0  0  0  0  0  0  0  0  0
    5.2870   18.1740    8.6390 H   0  0  0  0  0  0  0  0  0  0  0  0
    3.8330   18.3640    9.5570 H   0  0  0  0  0  0  0  0  0  0  0  0
    6.9270   13.9870    9.5520 H   0  0  0  0  0  0  0  0  0  0  0  0
    6.4610   16.1610    8.5110 H   0  0  0  0  0  0  0  0  0  0  0  0
  1  2  2  0  0  0  0
  2  3  1  0  0  0  0
  2  4  1  0  0  0  0
  3  5  2  0  0  0  0
  3 10  1  0  0  0  0
  4  6  1  0  0  0  0
  4  9  1  0  0  0  0
  5  7  1  0  0  0  0
  5 11  1  0  0  0  0
  6  7  2  0  0  0  0
  6  8  1  0  0  0  0
  8 14  1  0  0  0  0
  8 19  2  0  0  0  0
  9 12  1  0  0  0  0
  9 35  1  0  0  0  0
  9 36  1  0  0  0  0
 10 37  1  0  0  0  0
 10 38  1  0  0  0  0
 10 39  1  0  0  0  0
 11 40  1  0  0  0  0
 11 41  1  0  0  0  0
 11 42  1  0  0  0  0
 12 13  1  0  0  0  0
 12 15  1  0  0  0  0
 12 43  1  0  0  0  0
 13 22  2  0  0  0  0
 13 44  1  0  0  0  0
 14 16  2  0  0  0  0
 14 45  1  0  0  0  0
 15 18  2  0  0  0  0
 15 21  1  0  0  0  0
 16 17  1  0  0  0  0
 16 46  1  0  0  0  0
 17 23  2  0  0  0  0
 17 47  1  0  0  0  0
 19 20  1  0  0  0  0
 19 23  1  0  0  0  0
 20 48  1  0  0  0  0
 22 24  1  0  0  0  0
 22 49  1  0  0  0  0
 23 26  1  0  0  0  0
 24 25  1  0  0  0  0
 24 50  1  0  0  0  0
 24 51  1  0  0  0  0
 25 52  1  0  0  0  0
 25 53  1  0  0  0  0
 25 54  1  0  0  0  0
 26 27  1  0  0  0  0
 27 28  1  0  0  0  0
 27 55  1  0  0  0  0
 27 56  1  0  0  0  0
 28 29  1  0  0  0  0
 28 30  2  0  0  0  0
 29 31  2  0  0  0  0
 29 57  1  0  0  0  0
 30 32  1  0  0  0  0
 30 34  1  0  0  0  0
 31 33  1  0  0  0  0
 31 58  1  0  0  0  0
 32 59  1  0  0  0  0
 32 60  1  0  0  0  0
 33 34  2  0  0  0  0
 33 61  1  0  0  0  0
 34 62  1  0  0  0  0
M  CHG  1  21  -1
M  END
> <rseq>
1

> <mseq>
398

> <S>
-7.082396

> <rmsd_refine>
0.9495857

> <E_conf>
-112.9472

> <E_score1>
-15.00222

> <E_refine>
-39.36239

> <E_score2>
-7.082396

>  <$File>
outputs/pdb_4j58_cleaned.pdb_2024_06_17__22_47_40_V2_BS398_MIN1_/SDF/sdf_db.sdf

> <Rec_index>
1

>  <PLIF_raw>
[[32,18,28,30,34,33,31,29,2,4,6,7,5,3],[2222,826,823,823,823,823,823,823,954,954,954,954,954,954],[148,54,54,54,54,54,54,54,62,62,62,62,62,62],[3,7,10,10,10,10,10,10,10,10,10,10,10,10],[1,3.864145674,0.7,0.7,0.7,0.7,0.7,0.7,1.3,1.3,1.3,1.3,1.3,1.3]]

> <FP:PLIF>
1 16 2 21 30 39

>  <PLIF_ligidx>
[18,18,[28,30,34,33,31,29],[2,4,6,7,5,3],[2,4,6,7,5,3],32]

$$$$
398
  MOE2022           3D

 59 61  0  0  1  0  0  0  0  0999 V2000
    5.6620   14.7120   10.0430 C   0  0  0  0  0  0  0  0  0  0  0  0
    5.6220   15.9670    9.4490 C   0  0  0  0  0  0  0  0  0  0  0  0
    4.5690   16.8250    9.7560 C   0  0  0  0  0  0  0  0  0  0  0  0
    4.6520   14.3210   10.9210 C   0  0  0  0  0  0  0  0  0  0  0  0
    3.5970   15.1860   11.2280 C   0  0  0  0  0  0  0  0  0  0  0  0
    4.5030   18.0560    9.1770 O   0  0  0  0  0  0  0  0  0  0  0  0
    3.5660   16.4530   10.6430 C   0  0  0  0  0  0  0  0  0  0  0  0
    2.5010   14.7360   12.1800 C   0  0  1  0  0  0  0  0  0  0  0  0
    2.9300   14.7650   13.5820 N   0  0  0  0  0  0  0  0  0  0  0  0
    1.3300   15.5780   12.0950 O   0  0  0  0  0  0  0  0  0  0  0  0
    1.7780   15.2690   14.3330 C   0  0  2  0  0  0  0  0  0  0  0  0
    1.0610   16.1890   13.3590 C   0  0  2  0  0  0  0  0  0  0  0  0
   -0.4130   16.3840   13.6550 C   0  0  0  0  0  0  0  0  0  0  0  0
   -1.1660   15.3870   13.6040 O   0  0  0  0  0  0  0  0  0  0  0  0
   -0.7710   17.5280   14.0140 O   0  5  0  0  0  0  0  0  0  0  0  0
    2.0990   15.9340   15.6570 C   0  0  0  0  0  0  0  0  0  0  0  0
    3.2040   16.3070   15.9930 O   0  0  0  0  0  0  0  0  0  0  0  0
    1.0310   16.0970   16.4720 O   0  0  0  0  0  0  0  0  0  0  0  0
    0.9650   16.7960   17.6640 C   0  0  0  0  0  0  0  0  0  0  0  0
    0.4090   15.9530   18.7960 C   0  0  0  0  0  0  0  0  0  0  0  0
    1.2960   18.0970   17.7700 C   0  0  0  0  0  0  0  0  0  0  0  0
    1.7390   19.0040   16.6340 C   0  0  0  0  0  0  0  0  0  0  0  0
    3.1530   19.5180   16.7950 C   0  0  0  0  0  0  0  0  0  0  0  0
    1.4320   15.3850   19.6530 O   0  0  0  0  0  0  0  0  0  0  0  0
    2.1760   16.3050   20.4800 C   0  0  0  0  0  0  0  0  0  0  0  0
    4.0790   19.1550   16.0910 O   0  0  0  0  0  0  0  0  0  0  0  0
    3.3390   20.4480   17.7910 N   0  0  0  0  0  0  0  0  0  0  0  0
    4.5670   21.0510   18.1470 C   0  0  0  0  0  0  0  0  0  0  0  0
    5.7420   20.3000   18.2430 C   0  0  0  0  0  0  0  0  0  0  0  0
    4.5680   22.4180   18.4190 C   0  0  0  0  0  0  0  0  0  0  0  0
    6.9330   20.9290   18.5910 C   0  0  0  0  0  0  0  0  0  0  0  0
    5.7610   23.0410   18.7600 C   0  0  0  0  0  0  0  0  0  0  0  0
    8.2080   20.1210   18.6870 C   0  0  0  0  0  0  0  0  0  0  0  0
    6.9400   22.3010   18.8470 C   0  0  0  0  0  0  0  0  0  0  0  0
    6.4570   14.0460    9.8250 H   0  0  0  0  0  0  0  0  0  0  0  0
    6.3770   16.2610    8.7670 H   0  0  0  0  0  0  0  0  0  0  0  0
    4.6860   13.3570   11.3550 H   0  0  0  0  0  0  0  0  0  0  0  0
    5.3030   18.2210    8.6390 H   0  0  0  0  0  0  0  0  0  0  0  0
    2.7840   17.1340   10.8590 H   0  0  0  0  0  0  0  0  0  0  0  0
    2.1860   13.7290   11.9380 H   0  0  0  0  0  0  0  0  0  0  0  0
    3.6850   15.4310   13.6650 H   0  0  0  0  0  0  0  0  0  0  0  0
    1.1220   14.4290   14.5240 H   0  0  0  0  0  0  0  0  0  0  0  0
    1.5620   17.1490   13.3530 H   0  0  0  0  0  0  0  0  0  0  0  0
   -0.2590   16.5400   19.4090 H   0  0  0  0  0  0  0  0  0  0  0  0
   -0.1800   15.1380   18.3950 H   0  0  0  0  0  0  0  0  0  0  0  0
    1.2210   18.5860   18.7050 H   0  0  0  0  0  0  0  0  0  0  0  0
    1.6230   18.5290   15.6710 H   0  0  0  0  0  0  0  0  0  0  0  0
    1.0620   19.8470   16.6030 H   0  0  0  0  0  0  0  0  0  0  0  0
    2.8170   15.7490   21.1640 H   0  0  0  0  0  0  0  0  0  0  0  0
    2.8020   16.9480   19.8610 H   0  0  0  0  0  0  0  0  0  0  0  0
    1.4880   16.9170   21.0620 H   0  0  0  0  0  0  0  0  0  0  0  0
    2.4980   20.7570   18.3020 H   0  0  0  0  0  0  0  0  0  0  0  0
    5.7240   19.2590   18.0560 H   0  0  0  0  0  0  0  0  0  0  0  0
    3.6700   22.9770   18.3530 H   0  0  0  0  0  0  0  0  0  0  0  0
    5.7750   24.0820   18.9500 H   0  0  0  0  0  0  0  0  0  0  0  0
    8.1300   19.3900   19.4900 H   0  0  0  0  0  0  0  0  0  0  0  0
    8.3870   19.5880   17.7540 H   0  0  0  0  0  0  0  0  0  0  0  0
    9.0710   20.7580   18.8840 H   0  0  0  0  0  0  0  0  0  0  0  0
    7.8440   22.7860   19.1040 H   0  0  0  0  0  0  0  0  0  0  0  0
  1  2  1  0  0  0  0
  1  4  2  0  0  0  0
  1 35  1  0  0  0  0
  2  3  2  0  0  0  0
  2 36  1  0  0  0  0
  3  6  1  0  0  0  0
  3  7  1  0  0  0  0
  4  5  1  0  0  0  0
  4 37  1  0  0  0  0
  5  7  2  0  0  0  0
  5  8  1  0  0  0  0
  6 38  1  0  0  0  0
  7 39  1  0  0  0  0
  8  9  1  0  0  0  0
  8 10  1  0  0  0  0
  8 40  1  0  0  0  0
  9 11  1  0  0  0  0
  9 41  1  0  0  0  0
 10 12  1  0  0  0  0
 11 12  1  0  0  0  0
 11 16  1  0  0  0  0
 11 42  1  0  0  0  0
 12 13  1  0  0  0  0
 12 43  1  0  0  0  0
 13 14  2  0  0  0  0
 13 15  1  0  0  0  0
 16 17  2  0  0  0  0
 16 18  1  0  0  0  0
 18 19  1  0  0  0  0
 19 20  1  0  0  0  0
 19 21  2  0  0  0  0
 20 24  1  0  0  0  0
 20 44  1  0  0  0  0
 20 45  1  0  0  0  0
 21 22  1  0  0  0  0
 21 46  1  0  0  0  0
 22 23  1  0  0  0  0
 22 47  1  0  0  0  0
 22 48  1  0  0  0  0
 23 26  2  0  0  0  0
 23 27  1  0  0  0  0
 24 25  1  0  0  0  0
 25 49  1  0  0  0  0
 25 50  1  0  0  0  0
 25 51  1  0  0  0  0
 27 28  1  0  0  0  0
 27 52  1  0  0  0  0
 28 29  1  0  0  0  0
 28 30  2  0  0  0  0
 29 31  2  0  0  0  0
 29 53  1  0  0  0  0
 30 32  1  0  0  0  0
 30 54  1  0  0  0  0
 31 33  1  0  0  0  0
 31 34  1  0  0  0  0
 32 34  2  0  0  0  0
 32 55  1  0  0  0  0
 33 56  1  0  0  0  0
 33 57  1  0  0  0  0
 33 58  1  0  0  0  0
 34 59  1  0  0  0  0
M  CHG  1  15  -1
M  END
> <rseq>
1

> <mseq>
399

> <S>
-7.229237

> <rmsd_refine>
1.172717

> <E_conf>
-21.11073

> <E_score1>
-10.6717

> <E_refine>
-42.13383

> <E_score2>
-7.229237

>  <$File>
outputs/pdb_4j58_cleaned.pdb_2024_06_17__22_47_40_V2_BS398_MIN1_/SDF/sdf_db.sdf

> <Rec_index>
1

>  <PLIF_raw>
[[6,17],[2222,954],[148,62],[3,2],[0.8,0.8]]

> <FP:PLIF>
20 39

>  <PLIF_ligidx>
[17,6]

$$$$
399
  MOE2022           3D

 59 62  0  0  1  0  0  0  0  0999 V2000
    2.2520   16.3450   20.6460 C   0  0  0  0  0  0  0  0  0  0  0  0
    0.9460   15.9010   20.7990 C   0  0  0  0  0  0  0  0  0  0  0  0
    2.6630   16.8870   19.4350 C   0  0  0  0  0  0  0  0  0  0  0  0
    0.0560   15.9780   19.7340 C   0  0  0  0  0  0  0  0  0  0  0  0
    0.4690   16.5160   18.5190 C   0  0  0  0  0  0  0  0  0  0  0  0
    1.7740   16.9840   18.3610 C   0  0  0  0  0  0  0  0  0  0  0  0
    2.1960   17.5770   17.0230 C   0  0  1  0  0  0  0  0  0  0  0  0
    3.2320   18.5980   17.1700 N   0  0  0  0  0  0  0  0  0  0  0  0
    2.6640   16.5180   16.0410 C   0  0  0  0  0  0  0  0  0  0  0  0
    2.9970   19.8800   17.5920 C   0  0  0  0  0  0  0  0  0  0  0  0
    2.1070   16.5630   14.8240 N   0  0  0  0  0  0  0  0  0  0  0  0
    1.8610   20.3350   17.4720 O   0  0  0  0  0  0  0  0  0  0  0  0
    4.1320   20.6130   18.1550 C   0  0  0  0  0  0  0  0  0  0  0  0
    3.5910   15.7540   16.3090 O   0  0  0  0  0  0  0  0  0  0  0  0
    2.5600   15.7770   13.6860 C   0  0  1  0  0  0  0  0  0  0  0  0
    1.5530   14.7180   13.2620 C   0  0  0  0  0  0  0  0  0  0  0  0
    2.7690   16.6210   12.4310 C   0  0  0  0  0  0  0  0  0  0  0  0
    5.2170   19.9050   18.7060 C   0  0  0  0  0  0  0  0  0  0  0  0
    1.4610   14.8650   11.7370 C   0  0  0  0  0  0  0  0  0  0  0  0
    4.1890   22.0230   18.1720 C   0  0  0  0  0  0  0  0  0  0  0  0
    2.5610   15.7400   11.2790 N   0  0  0  0  0  0  0  0  0  0  0  0
    6.3180   20.5790   19.2100 C   0  0  0  0  0  0  0  0  0  0  0  0
    3.1580   22.7740   17.6880 O   0  0  0  0  0  0  0  0  0  0  0  0
    3.7810   15.1660   10.8110 C   0  0  0  0  0  0  0  0  0  0  0  0
    6.3570   21.9770   19.1950 C   0  0  0  0  0  0  0  0  0  0  0  0
    7.4270   22.6470   19.6940 O   0  0  0  0  0  0  0  0  0  0  0  0
    4.0750   13.8090   11.0060 C   0  0  0  0  0  0  0  0  0  0  0  0
    5.2930   22.7070   18.6780 C   0  0  0  0  0  0  0  0  0  0  0  0
    7.3570   19.8380   19.7200 O   0  0  0  0  0  0  0  0  0  0  0  0
    5.3030   13.2940   10.6050 C   0  0  0  0  0  0  0  0  0  0  0  0
    4.7350   15.9760   10.1630 C   0  0  0  0  0  0  0  0  0  0  0  0
    6.2440   14.1130    9.9910 C   0  0  0  0  0  0  0  0  0  0  0  0
    4.4920   17.3080    9.9120 O   0  0  0  0  0  0  0  0  0  0  0  0
    5.9570   15.4530    9.7560 C   0  0  0  0  0  0  0  0  0  0  0  0
    2.9330   16.2730   21.4530 H   0  0  0  0  0  0  0  0  0  0  0  0
    0.6350   15.5090   21.7260 H   0  0  0  0  0  0  0  0  0  0  0  0
    3.6580   17.2270   19.3420 H   0  0  0  0  0  0  0  0  0  0  0  0
   -0.9400   15.6340   19.8480 H   0  0  0  0  0  0  0  0  0  0  0  0
   -0.2160   16.5730   17.7130 H   0  0  0  0  0  0  0  0  0  0  0  0
    1.3240   18.0560   16.5970 H   0  0  0  0  0  0  0  0  0  0  0  0
    4.1940   18.2400   17.2580 H   0  0  0  0  0  0  0  0  0  0  0  0
    1.3660   17.2270   14.6530 H   0  0  0  0  0  0  0  0  0  0  0  0
    3.5080   15.2820   13.9000 H   0  0  0  0  0  0  0  0  0  0  0  0
    1.9270   13.7300   13.5300 H   0  0  0  0  0  0  0  0  0  0  0  0
    0.5740   14.8850   13.7120 H   0  0  0  0  0  0  0  0  0  0  0  0
    2.0380   17.4190   12.3950 H   0  0  0  0  0  0  0  0  0  0  0  0
    3.7400   17.0940   12.4360 H   0  0  0  0  0  0  0  0  0  0  0  0
    5.2060   18.8500   18.7490 H   0  0  0  0  0  0  0  0  0  0  0  0
    1.4320   13.9120   11.2270 H   0  0  0  0  0  0  0  0  0  0  0  0
    0.5240   15.3450   11.4890 H   0  0  0  0  0  0  0  0  0  0  0  0
    2.4070   22.1930   17.4420 H   0  0  0  0  0  0  0  0  0  0  0  0
    8.1400   22.0420   19.9750 H   0  0  0  0  0  0  0  0  0  0  0  0
    3.3830   13.1620   11.4760 H   0  0  0  0  0  0  0  0  0  0  0  0
    5.3200   23.7660   18.6680 H   0  0  0  0  0  0  0  0  0  0  0  0
    8.1080   20.3960   19.9990 H   0  0  0  0  0  0  0  0  0  0  0  0
    5.5270   12.2720   10.7740 H   0  0  0  0  0  0  0  0  0  0  0  0
    7.1770   13.7090    9.7070 H   0  0  0  0  0  0  0  0  0  0  0  0
    5.2030   17.6910    9.3610 H   0  0  0  0  0  0  0  0  0  0  0  0
    6.6660   16.0710    9.2710 H   0  0  0  0  0  0  0  0  0  0  0  0
  1  2  2  0  0  0  0
  1  3  1  0  0  0  0
  1 35  1  0  0  0  0
  2  4  1  0  0  0  0
  2 36  1  0  0  0  0
  3  6  2  0  0  0  0
  3 37  1  0  0  0  0
  4  5  2  0  0  0  0
  4 38  1  0  0  0  0
  5  6  1  0  0  0  0
  5 39  1  0  0  0  0
  6  7  1  0  0  0  0
  7  8  1  0  0  0  0
  7  9  1  0  0  0  0
  7 40  1  0  0  0  0
  8 10  1  0  0  0  0
  8 41  1  0  0  0  0
  9 11  1  0  0  0  0
  9 14  2  0  0  0  0
 10 12  2  0  0  0  0
 10 13  1  0  0  0  0
 11 15  1  0  0  0  0
 11 42  1  0  0  0  0
 13 18  1  0  0  0  0
 13 20  2  0  0  0  0
 15 16  1  0  0  0  0
 15 17  1  0  0  0  0
 15 43  1  0  0  0  0
 16 19  1  0  0  0  0
 16 44  1  0  0  0  0
 16 45  1  0  0  0  0
 17 21  1  0  0  0  0
 17 46  1  0  0  0  0
 17 47  1  0  0  0  0
 18 22  2  0  0  0  0
 18 48  1  0  0  0  0
 19 21  1  0  0  0  0
 19 49  1  0  0  0  0
 19 50  1  0  0  0  0
 20 23  1  0  0  0  0
 20 28  1  0  0  0  0
 21 24  1  0  0  0  0
 22 25  1  0  0  0  0
 22 29  1  0  0  0  0
 23 51  1  0  0  0  0
 24 27  1  0  0  0  0
 24 31  2  0  0  0  0
 25 26  1  0  0  0  0
 25 28  2  0  0  0  0
 26 52  1  0  0  0  0
 27 30  2  0  0  0  0
 27 53  1  0  0  0  0
 28 54  1  0  0  0  0
 29 55  1  0  0  0  0
 30 32  1  0  0  0  0
 30 56  1  0  0  0  0
 31 33  1  0  0  0  0
 31 34  1  0  0  0  0
 32 34  2  0  0  0  0
 32 57  1  0  0  0  0
 33 58  1  0  0  0  0
 34 59  1  0  0  0  0
M  END
> <rseq>
1

> <mseq>
400

> <S>
-7.744288

> <rmsd_refine>
1.479913

> <E_conf>
14.5063

> <E_score1>
-9.951594

> <E_refine>
-43.38919

> <E_score2>
-7.744288

>  <$File>
outputs/pdb_4j58_cleaned.pdb_2024_06_17__22_47_40_V2_BS398_MIN1_/SDF/sdf_db.sdf

> <Rec_index>
1

>  <PLIF_raw>
[[33,14,26,26,26,26,26,26,1,3,6,5,4,2],[2222,954,1651,1655,1659,1657,1653,1650,1519,1519,1519,1519,1519,1519],[148,62,112,112,112,112,112,112,102,102,102,102,102,102],[3,2,10,10,10,10,10,10,10,10,10,10,10,10],[1,1.4,0.5,0.5,0.5,0.5,0.5,0.5,0.5,0.5,0.5,0.5,0.5,0.5]]

> <FP:PLIF>
20 22 15 39

>  <PLIF_ligidx>
[14,[1,3,6,5,4,2],[26,26,26,26,26,26],33]

$$$$
348
  MOE2022           3D

 58 60  0  0  1  0  0  0  0  0999 V2000
    7.2750   21.1060   19.4140 C   0  0  0  0  0  0  0  0  0  0  0  0
    6.4520   20.0380   19.0740 C   0  0  0  0  0  0  0  0  0  0  0  0
    5.1480   20.2870   18.6530 C   0  0  0  0  0  0  0  0  0  0  0  0
    4.3920   19.2080   18.2360 O   0  0  0  0  0  0  0  0  0  0  0  0
    3.2770   19.2750   17.2810 C   0  0  1  0  0  0  0  0  0  0  0  0
    4.6450   21.5900   18.6140 C   0  0  0  0  0  0  0  0  0  0  0  0
    6.7910   22.4090   19.3460 C   0  0  0  0  0  0  0  0  0  0  0  0
    5.4780   22.6510   18.9510 C   0  0  0  0  0  0  0  0  0  0  0  0
    3.7340   19.7330   15.8930 C   0  0  0  0  0  0  0  0  0  0  0  0
    4.6010   20.6020   15.7930 O   0  0  0  0  0  0  0  0  0  0  0  0
    2.5360   17.9290   17.2870 C   0  0  2  0  0  0  0  0  0  0  0  0
    3.1360   19.2420   14.7810 N   0  0  0  0  0  0  0  0  0  0  0  0
    1.4980   17.8270   16.1490 C   0  0  2  0  0  0  0  0  0  0  0  0
    2.2600   18.0410   14.8100 C   0  0  1  0  0  0  0  0  0  0  0  0
    1.9330   17.7390   18.5590 O   0  0  0  0  0  0  0  0  0  0  0  0
    3.4450   19.8430   13.4690 C   0  0  0  0  0  0  0  0  0  0  0  0
    0.4340   18.8510   16.3010 N   0  0  0  0  0  0  0  0  0  0  0  0
    0.8970   16.4000   16.1970 C   0  0  0  0  0  0  0  0  0  0  0  0
   -0.1240   16.1810   15.2440 O   0  0  0  0  0  0  0  0  0  0  0  0
    1.3090   18.0200   13.6540 O   0  0  0  0  0  0  0  0  0  0  0  0
    1.5830   17.2510   12.3860 C   0  0  2  0  0  0  0  0  0  0  0  0
    2.7850   16.2870   12.5360 C   0  0  0  0  0  0  0  0  0  0  0  0
    1.5940   18.2240   11.1970 C   0  0  0  0  0  0  0  0  0  0  0  0
    1.2520   19.3980   11.3240 O   0  0  0  0  0  0  0  0  0  0  0  0
    3.0410   15.3070   11.3900 C   0  0  2  0  0  0  0  0  0  0  0  0
    1.9350   17.8700    9.9450 O   0  0  0  0  0  0  0  0  0  0  0  0
    2.3770   16.6190    9.3890 C   0  0  0  0  0  0  0  0  0  0  0  0
    3.9840   14.3670   11.8540 O   0  0  0  0  0  0  0  0  0  0  0  0
    3.5670   16.0270   10.1370 C   0  0  2  0  0  0  0  0  0  0  0  0
    4.3080   15.1260    9.2640 O   0  0  0  0  0  0  0  0  0  0  0  0
    5.6660   14.9450    9.3740 C   0  0  0  0  0  0  0  0  0  0  0  0
    6.3330   15.7620   10.0670 O   0  0  0  0  0  0  0  0  0  0  0  0
    6.1320   13.9550    8.7620 O   0  5  0  0  0  0  0  0  0  0  0  0
    8.2750   20.9290   19.7130 H   0  0  0  0  0  0  0  0  0  0  0  0
    6.8210   19.0480   19.1180 H   0  0  0  0  0  0  0  0  0  0  0  0
    2.5780   20.0130   17.6510 H   0  0  0  0  0  0  0  0  0  0  0  0
    3.6470   21.7810   18.3170 H   0  0  0  0  0  0  0  0  0  0  0  0
    7.4220   23.2180   19.5960 H   0  0  0  0  0  0  0  0  0  0  0  0
    5.1140   23.6440   18.9030 H   0  0  0  0  0  0  0  0  0  0  0  0
    3.2830   17.1480   17.1420 H   0  0  0  0  0  0  0  0  0  0  0  0
    2.9190   17.1930   14.7300 H   0  0  0  0  0  0  0  0  0  0  0  0
    2.5610   18.0020   19.2380 H   0  0  0  0  0  0  0  0  0  0  0  0
    4.3000   20.5040   13.4810 H   0  0  0  0  0  0  0  0  0  0  0  0
    3.6670   19.0940   12.7250 H   0  0  0  0  0  0  0  0  0  0  0  0
    2.6110   20.4350   13.1170 H   0  0  0  0  0  0  0  0  0  0  0  0
    0.8290   19.7770   16.2240 H   0  0  0  0  0  0  0  0  0  0  0  0
   -0.0110   18.7430   17.2030 H   0  0  0  0  0  0  0  0  0  0  0  0
    1.6910   15.6740   16.0270 H   0  0  0  0  0  0  0  0  0  0  0  0
    0.4710   16.2170   17.1840 H   0  0  0  0  0  0  0  0  0  0  0  0
   -0.7300   16.9270   15.2830 H   0  0  0  0  0  0  0  0  0  0  0  0
    0.7150   16.6220   12.2450 H   0  0  0  0  0  0  0  0  0  0  0  0
    3.6910   16.8660   12.7050 H   0  0  0  0  0  0  0  0  0  0  0  0
    2.5930   15.6760   13.4180 H   0  0  0  0  0  0  0  0  0  0  0  0
    2.1240   14.7660   11.1510 H   0  0  0  0  0  0  0  0  0  0  0  0
    1.5480   15.9120    9.3650 H   0  0  0  0  0  0  0  0  0  0  0  0
    2.6830   16.8110    8.3600 H   0  0  0  0  0  0  0  0  0  0  0  0
    3.5550   13.7240   12.4240 H   0  0  0  0  0  0  0  0  0  0  0  0
    4.2340   16.8420   10.4190 H   0  0  0  0  0  0  0  0  0  0  0  0
  1  2  1  0  0  0  0
  1  7  2  0  0  0  0
  1 34  1  0  0  0  0
  2  3  2  0  0  0  0
  2 35  1  0  0  0  0
  3  4  1  0  0  0  0
  3  6  1  0  0  0  0
  4  5  1  0  0  0  0
  5  9  1  0  0  0  0
  5 11  1  0  0  0  0
  5 36  1  0  0  0  0
  6  8  2  0  0  0  0
  6 37  1  0  0  0  0
  7  8  1  0  0  0  0
  7 38  1  0  0  0  0
  8 39  1  0  0  0  0
  9 10  2  0  0  0  0
  9 12  1  0  0  0  0
 11 13  1  0  0  0  0
 11 15  1  0  0  0  0
 11 40  1  0  0  0  0
 12 14  1  0  0  0  0
 12 16  1  0  0  0  0
 13 14  1  0  0  0  0
 13 17  1  0  0  0  0
 13 18  1  0  0  0  0
 14 20  1  0  0  0  0
 14 41  1  0  0  0  0
 15 42  1  0  0  0  0
 16 43  1  0  0  0  0
 16 44  1  0  0  0  0
 16 45  1  0  0  0  0
 17 46  1  0  0  0  0
 17 47  1  0  0  0  0
 18 19  1  0  0  0  0
 18 48  1  0  0  0  0
 18 49  1  0  0  0  0
 19 50  1  0  0  0  0
 20 21  1  0  0  0  0
 21 22  1  0  0  0  0
 21 23  1  0  0  0  0
 21 51  1  0  0  0  0
 22 25  1  0  0  0  0
 22 52  1  0  0  0  0
 22 53  1  0  0  0  0
 23 24  2  0  0  0  0
 23 26  1  0  0  0  0
 25 28  1  0  0  0  0
 25 29  1  0  0  0  0
 25 54  1  0  0  0  0
 26 27  1  0  0  0  0
 27 29  1  0  0  0  0
 27 55  1  0  0  0  0
 27 56  1  0  0  0  0
 28 57  1  0  0  0  0
 29 30  1  0  0  0  0
 29 58  1  0  0  0  0
 30 31  1  0  0  0  0
 31 32  2  0  0  0  0
 31 33  1  0  0  0  0
M  CHG  1  33  -1
M  END
> <rseq>
1

> <mseq>
349

> <S>
-6.075628

> <rmsd_refine>
1.603748

> <E_conf>
26.85022

> <E_score1>
-11.98189

> <E_refine>
-34.06517

> <E_score2>
-6.075628

>  <$File>
outputs/pdb_4j58_cleaned.pdb_2024_06_17__22_47_40_V2_BS398_MIN1_/SDF/sdf_db.sdf

> <Rec_index>
1

>  <PLIF_raw>
[[28,32,32],[1056,823,823],[70,54,54],[3,2,7],[0.5,6.4,4.236616585]]

> <FP:PLIF>
6 19 1 16 3

>  <PLIF_ligidx>
[32,32,32,32,28]

$$$$
349
  MOE2022           3D

 57 61  0  0  1  0  0  0  0  0999 V2000
    6.8240   20.8370   18.1520 C   0  0  0  0  0  0  0  0  0  0  0  0
    6.2400   21.1200   16.9260 C   0  0  0  0  0  0  0  0  0  0  0  0
    6.2150   19.9300   19.0100 C   0  0  0  0  0  0  0  0  0  0  0  0
    5.0310   19.2960   18.6380 C   0  0  0  0  0  0  0  0  0  0  0  0
    5.0540   20.4830   16.5620 C   0  0  0  0  0  0  0  0  0  0  0  0
    4.5270   20.8400   15.3530 O   0  0  0  0  0  0  0  0  0  0  0  0
    4.4300   19.5360   17.3980 C   0  0  0  0  0  0  0  0  0  0  0  0
    3.1020   18.8330   17.0280 C   0  0  2  0  0  0  0  0  0  0  0  0
    2.8730   17.4930   17.6370 N   0  0  0  0  0  0  0  0  0  0  0  0
    2.9180   18.6150   15.5840 N   0  0  0  0  0  0  0  0  0  0  0  0
    2.1460   16.7190   16.6080 C   0  0  2  0  0  0  0  0  0  0  0  0
    2.4180   17.4960   15.3570 C   0  0  0  0  0  0  0  0  0  0  0  0
    2.0420   16.9970   13.9680 C   0  0  2  0  0  0  0  0  0  0  0  0
    0.6300   16.5870   16.8840 C   0  0  0  0  0  0  0  0  0  0  0  0
    2.6230   15.6420   13.5510 C   0  0  0  0  0  0  0  0  0  0  0  0
    2.1540   17.5640   18.9320 C   0  0  0  0  0  0  0  0  0  0  0  0
    2.4280   17.9150   12.8050 C   0  0  0  0  0  0  0  0  0  0  0  0
    2.5510   15.6570   12.0140 C   0  0  1  0  0  0  0  0  0  0  0  0
    1.4060   16.3470   19.2360 N   0  0  0  0  0  0  0  0  0  0  0  0
    2.5260   17.0640   11.6450 O   0  0  0  0  0  0  0  0  0  0  0  0
    3.6500   14.9040   11.2820 C   0  0  0  0  0  0  0  0  0  0  0  0
    1.2820   15.9390   20.5680 C   0  0  0  0  0  0  0  0  0  0  0  0
    3.3600   13.6280   10.9290 O   0  0  0  0  0  0  0  0  0  0  0  0
    0.3390   16.0340   18.2850 C   0  0  0  0  0  0  0  0  0  0  0  0
    0.2510   15.2940   20.9000 O   0  0  0  0  0  0  0  0  0  0  0  0
    4.7240   15.3920   11.0040 O   0  0  0  0  0  0  0  0  0  0  0  0
    4.2010   12.7210   10.2900 C   0  0  0  0  0  0  0  0  0  0  0  0
    3.6380   11.9010    9.3150 C   0  0  0  0  0  0  0  0  0  0  0  0
    5.5510   12.6120   10.6260 C   0  0  0  0  0  0  0  0  0  0  0  0
    6.3450   11.6790    9.9680 C   0  0  0  0  0  0  0  0  0  0  0  0
    5.7910   10.8600    8.9870 C   0  0  0  0  0  0  0  0  0  0  0  0
    4.4400   10.9700    8.6620 C   0  0  0  0  0  0  0  0  0  0  0  0
    2.2100   16.2250   21.3680 O   0  5  0  0  0  0  0  0  0  0  0  0
    7.7270   21.3140   18.4360 H   0  0  0  0  0  0  0  0  0  0  0  0
    6.6910   21.8210   16.2720 H   0  0  0  0  0  0  0  0  0  0  0  0
    6.6550   19.7180   19.9500 H   0  0  0  0  0  0  0  0  0  0  0  0
    4.5980   18.6180   19.3190 H   0  0  0  0  0  0  0  0  0  0  0  0
    3.7420   20.2830   15.1690 H   0  0  0  0  0  0  0  0  0  0  0  0
    2.2930   19.4830   17.3390 H   0  0  0  0  0  0  0  0  0  0  0  0
    2.5970   15.7400   16.5450 H   0  0  0  0  0  0  0  0  0  0  0  0
    0.9650   16.8970   13.9350 H   0  0  0  0  0  0  0  0  0  0  0  0
    0.1790   17.5780   16.8120 H   0  0  0  0  0  0  0  0  0  0  0  0
    0.1650   15.9420   16.1380 H   0  0  0  0  0  0  0  0  0  0  0  0
    3.6600   15.5830   13.8700 H   0  0  0  0  0  0  0  0  0  0  0  0
    2.0650   14.8030   13.9710 H   0  0  0  0  0  0  0  0  0  0  0  0
    2.8590   17.7740   19.7210 H   0  0  0  0  0  0  0  0  0  0  0  0
    1.4650   18.3980   18.9150 H   0  0  0  0  0  0  0  0  0  0  0  0
    1.6870   18.6960   12.6310 H   0  0  0  0  0  0  0  0  0  0  0  0
    3.4110   18.3620   12.9660 H   0  0  0  0  0  0  0  0  0  0  0  0
    1.5940   15.2470   11.7200 H   0  0  0  0  0  0  0  0  0  0  0  0
    0.2130   14.9620   18.2390 H   0  0  0  0  0  0  0  0  0  0  0  0
   -0.6060   16.4220   18.6400 H   0  0  0  0  0  0  0  0  0  0  0  0
    2.6100   11.9860    9.0730 H   0  0  0  0  0  0  0  0  0  0  0  0
    5.9700   13.2220   11.3820 H   0  0  0  0  0  0  0  0  0  0  0  0
    7.3710   11.5890   10.2180 H   0  0  0  0  0  0  0  0  0  0  0  0
    6.3980   10.1480    8.4890 H   0  0  0  0  0  0  0  0  0  0  0  0
    4.0230   10.3420    7.9170 H   0  0  0  0  0  0  0  0  0  0  0  0
  1  2  1  0  0  0  0
  1  3  2  0  0  0  0
  1 34  1  0  0  0  0
  2  5  2  0  0  0  0
  2 35  1  0  0  0  0
  3  4  1  0  0  0  0
  3 36  1  0  0  0  0
  4  7  2  0  0  0  0
  4 37  1  0  0  0  0
  5  6  1  0  0  0  0
  5  7  1  0  0  0  0
  6 38  1  0  0  0  0
  7  8  1  0  0  0  0
  8  9  1  0  0  0  0
  8 10  1  0  0  0  0
  8 39  1  0  0  0  0
  9 11  1  0  0  0  0
  9 16  1  0  0  0  0
 10 12  2  0  0  0  0
 11 12  1  0  0  0  0
 11 14  1  0  0  0  0
 11 40  1  0  0  0  0
 12 13  1  0  0  0  0
 13 15  1  0  0  0  0
 13 17  1  0  0  0  0
 13 41  1  0  0  0  0
 14 24  1  0  0  0  0
 14 42  1  0  0  0  0
 14 43  1  0  0  0  0
 15 18  1  0  0  0  0
 15 44  1  0  0  0  0
 15 45  1  0  0  0  0
 16 19  1  0  0  0  0
 16 46  1  0  0  0  0
 16 47  1  0  0  0  0
 17 20  1  0  0  0  0
 17 48  1  0  0  0  0
 17 49  1  0  0  0  0
 18 20  1  0  0  0  0
 18 21  1  0  0  0  0
 18 50  1  0  0  0  0
 19 22  1  0  0  0  0
 19 24  1  0  0  0  0
 21 23  1  0  0  0  0
 21 26  2  0  0  0  0
 22 25  2  0  0  0  0
 22 33  1  0  0  0  0
 23 27  1  0  0  0  0
 24 51  1  0  0  0  0
 24 52  1  0  0  0  0
 27 28  2  0  0  0  0
 27 29  1  0  0  0  0
 28 32  1  0  0  0  0
 28 53  1  0  0  0  0
 29 30  2  0  0  0  0
 29 54  1  0  0  0  0
 30 31  1  0  0  0  0
 30 55  1  0  0  0  0
 31 32  2  0  0  0  0
 31 56  1  0  0  0  0
 32 57  1  0  0  0  0
M  CHG  1  33  -1
M  END
> <rseq>
1

> <mseq>
350

> <S>
-6.695579

> <rmsd_refine>
2.826122

> <E_conf>
-169.3322

> <E_score1>
-10.62262

> <E_refine>
-45.28341

> <E_score2>
-6.695579

>  <$File>
outputs/pdb_4j58_cleaned.pdb_2024_06_17__22_47_40_V2_BS398_MIN1_/SDF/sdf_db.sdf

> <Rec_index>
1

>  <PLIF_raw>
[[9,25,25,26,25,25,27,29,30,31,32,28],[954,1206,1212,823,1206,1212,1057,1057,1057,1057,1057,1057],[62,81,81,54,81,81,70,70,70,70,70,70],[2,2,2,2,7,7,10,10,10,10,10,10],[2.5,5.8,4.5,0.7,4.190689755,5.283876501,1.1,1.1,1.1,1.1,1.1,1.1]]

> <FP:PLIF>
6 20 23 43 51 17 18 24 25

>  <PLIF_ligidx>
[26,9,9,[27,29,30,31,32,28],[27,29,30,31,32,28],[25,25],[25,25],[25,25],[25,25]]

$$$$
350
  MOE2022           3D

 55 56  0  0  1  0  0  0  0  0999 V2000
    5.7390   14.7320   10.0220 C   0  0  0  0  0  0  0  0  0  0  0  0
    5.6710   15.9500    9.3570 C   0  0  0  0  0  0  0  0  0  0  0  0
    4.5950   16.7970    9.6100 C   0  0  0  0  0  0  0  0  0  0  0  0
    4.7340   14.3660   10.9150 C   0  0  0  0  0  0  0  0  0  0  0  0
    3.6560   15.2190   11.1680 C   0  0  0  0  0  0  0  0  0  0  0  0
    4.5050   17.9910    8.9610 O   0  0  0  0  0  0  0  0  0  0  0  0
    3.5960   16.4490   10.5120 C   0  0  0  0  0  0  0  0  0  0  0  0
    2.5680   14.7920   12.1410 C   0  0  1  0  0  0  0  0  0  0  0  0
    3.0250   14.7970   13.5340 N   0  0  0  0  0  0  0  0  0  0  0  0
    1.4150   15.6600   12.0890 O   0  0  0  0  0  0  0  0  0  0  0  0
    1.8950   15.2990   14.3180 C   0  0  2  0  0  0  0  0  0  0  0  0
    1.1580   16.2360   13.3730 C   0  0  2  0  0  0  0  0  0  0  0  0
   -0.3150   16.4050   13.6860 C   0  0  0  0  0  0  0  0  0  0  0  0
   -1.0540   15.3970   13.6310 O   0  0  0  0  0  0  0  0  0  0  0  0
   -0.6880   17.5390   14.0600 O   0  5  0  0  0  0  0  0  0  0  0  0
    2.2620   15.9490   15.6380 C   0  0  0  0  0  0  0  0  0  0  0  0
    3.3890   16.2560   15.9640 O   0  0  0  0  0  0  0  0  0  0  0  0
    1.2140   16.1780   16.4600 O   0  0  0  0  0  0  0  0  0  0  0  0
    1.1940   16.8750   17.6550 C   0  0  0  0  0  0  0  0  0  0  0  0
    0.5670   16.0680   18.7760 C   0  0  0  0  0  0  0  0  0  0  0  0
    1.6190   18.1480   17.7790 C   0  0  0  0  0  0  0  0  0  0  0  0
    2.1410   19.0420   16.6680 C   0  0  0  0  0  0  0  0  0  0  0  0
    3.5600   19.5260   16.8920 C   0  0  0  0  0  0  0  0  0  0  0  0
    1.5380   15.4430   19.6540 O   0  0  0  0  0  0  0  0  0  0  0  0
    2.3280   16.3240   20.4830 C   0  0  0  0  0  0  0  0  0  0  0  0
    4.5060   19.0390   16.2800 O   0  0  0  0  0  0  0  0  0  0  0  0
    3.6900   20.5110   17.7920 N   0  0  0  0  0  0  0  0  0  0  0  0
    4.9280   21.1680   18.2320 C   0  0  1  0  0  0  0  0  0  0  0  0
    5.7590   20.2710   19.1740 C   0  0  0  0  0  0  0  0  0  0  0  0
    5.7500   21.7220   17.0480 C   0  0  0  0  0  0  0  0  0  0  0  0
    5.3280   20.1040   20.3390 O   0  0  0  0  0  0  0  0  0  0  0  0
    6.8140   19.7410   18.7580 O   0  5  0  0  0  0  0  0  0  0  0  0
    4.4790   22.3180   18.9810 O   0  0  0  0  0  0  0  0  0  0  0  0
    6.5520   14.0760    9.8440 H   0  0  0  0  0  0  0  0  0  0  0  0
    6.4230   16.2260    8.6650 H   0  0  0  0  0  0  0  0  0  0  0  0
    4.7910   13.4290   11.4040 H   0  0  0  0  0  0  0  0  0  0  0  0
    5.3030   18.1430    8.4190 H   0  0  0  0  0  0  0  0  0  0  0  0
    2.7940   17.1210   10.6830 H   0  0  0  0  0  0  0  0  0  0  0  0
    2.2220   13.7950   11.8980 H   0  0  0  0  0  0  0  0  0  0  0  0
    3.7860   15.4560   13.6110 H   0  0  0  0  0  0  0  0  0  0  0  0
    1.2390   14.4610   14.5190 H   0  0  0  0  0  0  0  0  0  0  0  0
    1.6480   17.2000   13.3840 H   0  0  0  0  0  0  0  0  0  0  0  0
   -0.0730   16.6960   19.3770 H   0  0  0  0  0  0  0  0  0  0  0  0
   -0.0620   15.2890   18.3660 H   0  0  0  0  0  0  0  0  0  0  0  0
    1.5650   18.6290   18.7180 H   0  0  0  0  0  0  0  0  0  0  0  0
    2.0600   18.5700   15.7010 H   0  0  0  0  0  0  0  0  0  0  0  0
    1.4850   19.8990   16.6030 H   0  0  0  0  0  0  0  0  0  0  0  0
    2.9050   15.7390   21.1990 H   0  0  0  0  0  0  0  0  0  0  0  0
    3.0190   16.9030   19.8690 H   0  0  0  0  0  0  0  0  0  0  0  0
    1.6730   16.9990   21.0290 H   0  0  0  0  0  0  0  0  0  0  0  0
    2.8630   20.7740   18.3040 H   0  0  0  0  0  0  0  0  0  0  0  0
    6.5720   22.3360   17.4180 H   0  0  0  0  0  0  0  0  0  0  0  0
    6.1810   20.9210   16.4500 H   0  0  0  0  0  0  0  0  0  0  0  0
    5.1250   22.3390   16.4030 H   0  0  0  0  0  0  0  0  0  0  0  0
    3.9590   22.0030   19.7380 H   0  0  0  0  0  0  0  0  0  0  0  0
  1  2  1  0  0  0  0
  1  4  2  0  0  0  0
  1 34  1  0  0  0  0
  2  3  2  0  0  0  0
  2 35  1  0  0  0  0
  3  6  1  0  0  0  0
  3  7  1  0  0  0  0
  4  5  1  0  0  0  0
  4 36  1  0  0  0  0
  5  7  2  0  0  0  0
  5  8  1  0  0  0  0
  6 37  1  0  0  0  0
  7 38  1  0  0  0  0
  8  9  1  0  0  0  0
  8 10  1  0  0  0  0
  8 39  1  0  0  0  0
  9 11  1  0  0  0  0
  9 40  1  0  0  0  0
 10 12  1  0  0  0  0
 11 12  1  0  0  0  0
 11 16  1  0  0  0  0
 11 41  1  0  0  0  0
 12 13  1  0  0  0  0
 12 42  1  0  0  0  0
 13 14  2  0  0  0  0
 13 15  1  0  0  0  0
 16 17  2  0  0  0  0
 16 18  1  0  0  0  0
 18 19  1  0  0  0  0
 19 20  1  0  0  0  0
 19 21  2  0  0  0  0
 20 24  1  0  0  0  0
 20 43  1  0  0  0  0
 20 44  1  0  0  0  0
 21 22  1  0  0  0  0
 21 45  1  0  0  0  0
 22 23  1  0  0  0  0
 22 46  1  0  0  0  0
 22 47  1  0  0  0  0
 23 26  2  0  0  0  0
 23 27  1  0  0  0  0
 24 25  1  0  0  0  0
 25 48  1  0  0  0  0
 25 49  1  0  0  0  0
 25 50  1  0  0  0  0
 27 28  1  0  0  0  0
 27 51  1  0  0  0  0
 28 29  1  0  0  0  0
 28 30  1  0  0  0  0
 28 33  1  0  0  0  0
 29 31  2  0  0  0  0
 29 32  1  0  0  0  0
 30 52  1  0  0  0  0
 30 53  1  0  0  0  0
 30 54  1  0  0  0  0
 33 55  1  0  0  0  0
M  CHG  1  15  -1
M  CHG  1  32  -1
M  END
> <rseq>
1

> <mseq>
351

> <S>
-6.910108

> <rmsd_refine>
1.212108

> <E_conf>
-17.58041

> <E_score1>
-10.53235

> <E_refine>
-40.78459

> <E_score2>
-6.910108

>  <$File>
outputs/pdb_4j58_cleaned.pdb_2024_06_17__22_47_40_V2_BS398_MIN1_/SDF/sdf_db.sdf

> <Rec_index>
1

>  <PLIF_raw>
[[27,17,31,31,31],[1504,954,1499,1870,1866],[101,62,101,125,125],[3,2,4,2,7],[0.6,1.1,6,0.6,0.7806479584]]

> <FP:PLIF>
20 8 11 12 29 13

>  <PLIF_ligidx>
[17,27,31,31,31,31]

$$$$
351
  MOE2022           3D

 58 61  0  0  1  0  0  0  0  0999 V2000
    2.0370   16.3300   20.5450 C   0  0  0  0  0  0  0  0  0  0  0  0
    0.7180   15.9040   20.6260 C   0  0  0  0  0  0  0  0  0  0  0  0
    2.5290   16.8370   19.3480 C   0  0  0  0  0  0  0  0  0  0  0  0
   -0.1040   15.9660   19.5070 C   0  0  0  0  0  0  0  0  0  0  0  0
    0.3890   16.4740   18.3090 C   0  0  0  0  0  0  0  0  0  0  0  0
    1.7060   16.9240   18.2210 C   0  0  0  0  0  0  0  0  0  0  0  0
    2.2100   17.4910   16.9010 C   0  0  1  0  0  0  0  0  0  0  0  0
    3.2350   18.5220   17.0950 N   0  0  0  0  0  0  0  0  0  0  0  0
    2.7320   16.4090   15.9710 C   0  0  0  0  0  0  0  0  0  0  0  0
    2.9740   19.7940   17.5370 C   0  0  0  0  0  0  0  0  0  0  0  0
    2.1730   16.3410   14.7540 N   0  0  0  0  0  0  0  0  0  0  0  0
    1.8290   20.2270   17.4220 O   0  0  0  0  0  0  0  0  0  0  0  0
    4.0930   20.5480   18.1060 C   0  0  0  0  0  0  0  0  0  0  0  0
    3.6960   15.7100   16.2820 O   0  0  0  0  0  0  0  0  0  0  0  0
    2.7240   15.5610   13.6540 C   0  0  1  0  0  0  0  0  0  0  0  0
    1.8720   14.3720   13.2570 C   0  0  0  0  0  0  0  0  0  0  0  0
    2.8590   16.3540   12.3550 C   0  0  0  0  0  0  0  0  0  0  0  0
    5.1720   19.8640   18.6950 C   0  0  0  0  0  0  0  0  0  0  0  0
    2.3010   14.1120   11.8130 C   0  0  0  0  0  0  0  0  0  0  0  0
    4.1400   21.9590   18.0890 C   0  0  0  0  0  0  0  0  0  0  0  0
    2.7130   15.4050   11.2400 N   0  0  0  0  0  0  0  0  0  0  0  0
    6.2630   20.5600   19.1950 C   0  0  0  0  0  0  0  0  0  0  0  0
    3.1090   22.6880   17.5720 O   0  0  0  0  0  0  0  0  0  0  0  0
    3.5480   15.5260   10.1010 C   0  0  0  0  0  0  0  0  0  0  0  0
    6.2960   21.9570   19.1390 C   0  0  0  0  0  0  0  0  0  0  0  0
    7.3620   22.6510   19.6250 O   0  0  0  0  0  0  0  0  0  0  0  0
    3.9880   14.3950    9.3960 C   0  0  0  0  0  0  0  0  0  0  0  0
    5.2320   22.6640   18.5920 C   0  0  0  0  0  0  0  0  0  0  0  0
    7.3000   19.8400   19.7400 O   0  0  0  0  0  0  0  0  0  0  0  0
    4.8070   14.5480    8.2830 C   0  0  0  0  0  0  0  0  0  0  0  0
    3.9220   16.8040    9.6600 C   0  0  0  0  0  0  0  0  0  0  0  0
    5.1820   15.8190    7.8540 C   0  0  0  0  0  0  0  0  0  0  0  0
    4.7320   16.9420    8.5400 C   0  0  0  0  0  0  0  0  0  0  0  0
    2.6670   16.2720   21.3940 H   0  0  0  0  0  0  0  0  0  0  0  0
    0.3390   15.5380   21.5400 H   0  0  0  0  0  0  0  0  0  0  0  0
    3.5350   17.1600   19.3060 H   0  0  0  0  0  0  0  0  0  0  0  0
   -1.1080   15.6340   19.5660 H   0  0  0  0  0  0  0  0  0  0  0  0
   -0.2470   16.5230   17.4620 H   0  0  0  0  0  0  0  0  0  0  0  0
    1.3660   17.9620   16.4130 H   0  0  0  0  0  0  0  0  0  0  0  0
    4.2010   18.1750   17.1870 H   0  0  0  0  0  0  0  0  0  0  0  0
    1.3840   16.9340   14.5450 H   0  0  0  0  0  0  0  0  0  0  0  0
    3.7150   15.1860   13.9030 H   0  0  0  0  0  0  0  0  0  0  0  0
    2.0560   13.5090   13.8940 H   0  0  0  0  0  0  0  0  0  0  0  0
    0.8170   14.6470   13.2760 H   0  0  0  0  0  0  0  0  0  0  0  0
    2.0780   17.0990   12.2860 H   0  0  0  0  0  0  0  0  0  0  0  0
    3.8040   16.8770   12.3320 H   0  0  0  0  0  0  0  0  0  0  0  0
    5.1620   18.8100   18.7690 H   0  0  0  0  0  0  0  0  0  0  0  0
    3.1380   13.4280   11.8140 H   0  0  0  0  0  0  0  0  0  0  0  0
    1.5070   13.6560   11.2370 H   0  0  0  0  0  0  0  0  0  0  0  0
    2.3620   22.0970   17.3390 H   0  0  0  0  0  0  0  0  0  0  0  0
    8.0800   22.0590   19.9190 H   0  0  0  0  0  0  0  0  0  0  0  0
    3.7040   13.4220    9.6990 H   0  0  0  0  0  0  0  0  0  0  0  0
    5.2500   23.7230   18.5540 H   0  0  0  0  0  0  0  0  0  0  0  0
    8.0440   20.4110   20.0110 H   0  0  0  0  0  0  0  0  0  0  0  0
    5.1450   13.6940    7.7550 H   0  0  0  0  0  0  0  0  0  0  0  0
    3.5790   17.6690   10.1640 H   0  0  0  0  0  0  0  0  0  0  0  0
    5.8000   15.9330    7.0020 H   0  0  0  0  0  0  0  0  0  0  0  0
    5.0040   17.9080    8.2030 H   0  0  0  0  0  0  0  0  0  0  0  0
  1  2  2  0  0  0  0
  1  3  1  0  0  0  0
  1 34  1  0  0  0  0
  2  4  1  0  0  0  0
  2 35  1  0  0  0  0
  3  6  2  0  0  0  0
  3 36  1  0  0  0  0
  4  5  2  0  0  0  0
  4 37  1  0  0  0  0
  5  6  1  0  0  0  0
  5 38  1  0  0  0  0
  6  7  1  0  0  0  0
  7  8  1  0  0  0  0
  7  9  1  0  0  0  0
  7 39  1  0  0  0  0
  8 10  1  0  0  0  0
  8 40  1  0  0  0  0
  9 11  1  0  0  0  0
  9 14  2  0  0  0  0
 10 12  2  0  0  0  0
 10 13  1  0  0  0  0
 11 15  1  0  0  0  0
 11 41  1  0  0  0  0
 13 18  1  0  0  0  0
 13 20  2  0  0  0  0
 15 16  1  0  0  0  0
 15 17  1  0  0  0  0
 15 42  1  0  0  0  0
 16 19  1  0  0  0  0
 16 43  1  0  0  0  0
 16 44  1  0  0  0  0
 17 21  1  0  0  0  0
 17 45  1  0  0  0  0
 17 46  1  0  0  0  0
 18 22  2  0  0  0  0
 18 47  1  0  0  0  0
 19 21  1  0  0  0  0
 19 48  1  0  0  0  0
 19 49  1  0  0  0  0
 20 23  1  0  0  0  0
 20 28  1  0  0  0  0
 21 24  1  0  0  0  0
 22 25  1  0  0  0  0
 22 29  1  0  0  0  0
 23 50  1  0  0  0  0
 24 27  1  0  0  0  0
 24 31  2  0  0  0  0
 25 26  1  0  0  0  0
 25 28  2  0  0  0  0
 26 51  1  0  0  0  0
 27 30  2  0  0  0  0
 27 52  1  0  0  0  0
 28 53  1  0  0  0  0
 29 54  1  0  0  0  0
 30 32  1  0  0  0  0
 30 55  1  0  0  0  0
 31 33  1  0  0  0  0
 31 56  1  0  0  0  0
 32 33  2  0  0  0  0
 32 57  1  0  0  0  0
 33 58  1  0  0  0  0
M  END
> <rseq>
1

> <mseq>
352

> <S>
-7.262518

> <rmsd_refine>
1.254001

> <E_conf>
-0.341891

> <E_score1>
-9.93605

> <E_refine>
-39.63417

> <E_score2>
-7.262518

>  <$File>
outputs/pdb_4j58_cleaned.pdb_2024_06_17__22_47_40_V2_BS398_MIN1_/SDF/sdf_db.sdf

> <Rec_index>
1

>  <PLIF_raw>
[[14,1,3,6,5,4,2],[954,1519,1519,1519,1519,1519,1519],[62,102,102,102,102,102,102],[2,10,10,10,10,10,10],[1.4,0.5,0.5,0.5,0.5,0.5,0.5]]

> <FP:PLIF>
20 22

>  <PLIF_ligidx>
[14,[1,3,6,5,4,2]]

$$$$
352
  MOE2022           3D

 58 60  0  0  0  0  0  0  0  0999 V2000
    5.1490   14.8140   10.0760 C   0  0  0  0  0  0  0  0  0  0  0  0
    4.3230   14.7710   11.1920 C   0  0  0  0  0  0  0  0  0  0  0  0
    3.6110   15.9140   11.5850 C   0  0  0  0  0  0  0  0  0  0  0  0
    5.8780   13.7000    9.7430 O   0  0  0  0  0  0  0  0  0  0  0  0
    3.7060   17.0790   10.8020 C   0  0  0  0  0  0  0  0  0  0  0  0
    2.8090   15.8870   12.8070 C   0  0  0  0  0  0  0  0  0  0  0  0
    2.6540   17.0610   13.5070 N   0  0  0  0  0  0  0  0  0  0  0  0
    2.2910   14.8630   13.2470 O   0  0  0  0  0  0  0  0  0  0  0  0
    5.2420   15.9810    9.3130 C   0  0  0  0  0  0  0  0  0  0  0  0
    1.8640   17.1860   14.7480 C   0  0  0  0  0  0  0  0  0  0  0  0
    2.6420   16.8090   16.0010 C   0  0  0  0  0  0  0  0  0  0  0  0
    1.1440   18.5230   14.8400 C   0  0  0  0  0  0  0  0  0  0  0  0
    3.6220   16.0640   15.9420 O   0  0  0  0  0  0  0  0  0  0  0  0
    0.7820   19.1040   13.8150 O   0  0  0  0  0  0  0  0  0  0  0  0
    0.8190   19.0000   16.0570 N   0  0  0  0  0  0  0  0  0  0  0  0
    6.0440   16.0270    8.2100 O   0  0  0  0  0  0  0  0  0  0  0  0
    2.1610   17.2400   17.1810 N   0  0  0  0  0  0  0  0  0  0  0  0
   -0.2320   20.0290   16.2070 C   0  0  0  0  0  0  0  0  0  0  0  0
    4.5140   17.1130    9.6700 C   0  0  0  0  0  0  0  0  0  0  0  0
    1.4500   18.5130   17.2850 C   0  0  0  0  0  0  0  0  0  0  0  0
    0.2030   21.4780   15.9280 C   0  0  0  0  0  0  0  0  0  0  0  0
    2.3150   19.5130   17.8720 O   0  0  0  0  0  0  0  0  0  0  0  0
    2.6200   16.6410   18.4500 C   0  0  0  0  0  0  0  0  0  0  0  0
    1.5200   16.3700   19.4880 C   0  0  0  0  0  0  0  0  0  0  0  0
    3.5730   19.9080   17.4610 C   0  0  0  0  0  0  0  0  0  0  0  0
    0.5150   15.5170   18.9790 O   0  0  0  0  0  0  0  0  0  0  0  0
    0.9880   22.0180   16.9710 O   0  0  0  0  0  0  0  0  0  0  0  0
    4.6300   19.7900   18.3650 C   0  0  0  0  0  0  0  0  0  0  0  0
    5.8990   20.2420   18.0100 C   0  0  0  0  0  0  0  0  0  0  0  0
    6.0970   20.8130   16.7530 C   0  0  0  0  0  0  0  0  0  0  0  0
    3.7740   20.4600   16.1970 C   0  0  0  0  0  0  0  0  0  0  0  0
    5.0390   20.9200   15.8510 C   0  0  0  0  0  0  0  0  0  0  0  0
    7.0610   20.1310   18.9760 C   0  0  0  0  0  0  0  0  0  0  0  0
    4.2470   13.8790   11.7570 H   0  0  0  0  0  0  0  0  0  0  0  0
    5.7220   12.9830   10.3890 H   0  0  0  0  0  0  0  0  0  0  0  0
    3.1560   17.9450   11.0690 H   0  0  0  0  0  0  0  0  0  0  0  0
    3.1220   17.9110   13.1610 H   0  0  0  0  0  0  0  0  0  0  0  0
    1.0610   16.4610   14.7000 H   0  0  0  0  0  0  0  0  0  0  0  0
    6.0120   16.9070    7.7880 H   0  0  0  0  0  0  0  0  0  0  0  0
   -1.0450   19.7880   15.5350 H   0  0  0  0  0  0  0  0  0  0  0  0
   -0.6690   19.9720   17.1950 H   0  0  0  0  0  0  0  0  0  0  0  0
    4.5750   17.9950    9.0860 H   0  0  0  0  0  0  0  0  0  0  0  0
    0.6490   18.3660   17.9980 H   0  0  0  0  0  0  0  0  0  0  0  0
    0.7630   21.5290   14.9940 H   0  0  0  0  0  0  0  0  0  0  0  0
   -0.6850   22.1010   15.8200 H   0  0  0  0  0  0  0  0  0  0  0  0
    3.1060   15.7000   18.2480 H   0  0  0  0  0  0  0  0  0  0  0  0
    3.3760   17.2700   18.8980 H   0  0  0  0  0  0  0  0  0  0  0  0
    1.9680   15.8950   20.3610 H   0  0  0  0  0  0  0  0  0  0  0  0
    1.0620   17.3050   19.8120 H   0  0  0  0  0  0  0  0  0  0  0  0
    0.9290   14.8670   18.4000 H   0  0  0  0  0  0  0  0  0  0  0  0
    0.4670   22.0350   17.7770 H   0  0  0  0  0  0  0  0  0  0  0  0
    4.4630   19.3620   19.3180 H   0  0  0  0  0  0  0  0  0  0  0  0
    7.0570   21.1680   16.4800 H   0  0  0  0  0  0  0  0  0  0  0  0
    2.9720   20.5540   15.5140 H   0  0  0  0  0  0  0  0  0  0  0  0
    5.1970   21.3590   14.9000 H   0  0  0  0  0  0  0  0  0  0  0  0
    7.3990   21.1230   19.2780 H   0  0  0  0  0  0  0  0  0  0  0  0
    6.7820   19.5800   19.8720 H   0  0  0  0  0  0  0  0  0  0  0  0
    7.8990   19.6140   18.5060 H   0  0  0  0  0  0  0  0  0  0  0  0
  1  2  1  0  0  0  0
  1  4  1  0  0  0  0
  1  9  2  0  0  0  0
  2  3  2  0  0  0  0
  2 34  1  0  0  0  0
  3  5  1  0  0  0  0
  3  6  1  0  0  0  0
  4 35  1  0  0  0  0
  5 19  2  0  0  0  0
  5 36  1  0  0  0  0
  6  7  1  0  0  0  0
  6  8  2  0  0  0  0
  7 10  1  0  0  0  0
  7 37  1  0  0  0  0
  9 16  1  0  0  0  0
  9 19  1  0  0  0  0
 10 11  1  0  0  0  0
 10 12  1  0  0  0  0
 10 38  1  0  0  0  0
 11 13  2  0  0  0  0
 11 17  1  0  0  0  0
 12 14  2  0  0  0  0
 12 15  1  0  0  0  0
 15 18  1  0  0  0  0
 15 20  1  0  0  0  0
 16 39  1  0  0  0  0
 17 20  1  0  0  0  0
 17 23  1  0  0  0  0
 18 21  1  0  0  0  0
 18 40  1  0  0  0  0
 18 41  1  0  0  0  0
 19 42  1  0  0  0  0
 20 22  1  0  0  0  0
 20 43  1  0  0  0  0
 21 27  1  0  0  0  0
 21 44  1  0  0  0  0
 21 45  1  0  0  0  0
 22 25  1  0  0  0  0
 23 24  1  0  0  0  0
 23 46  1  0  0  0  0
 23 47  1  0  0  0  0
 24 26  1  0  0  0  0
 24 48  1  0  0  0  0
 24 49  1  0  0  0  0
 25 28  1  0  0  0  0
 25 31  2  0  0  0  0
 26 50  1  0  0  0  0
 27 51  1  0  0  0  0
 28 29  2  0  0  0  0
 28 52  1  0  0  0  0
 29 30  1  0  0  0  0
 29 33  1  0  0  0  0
 30 32  2  0  0  0  0
 30 53  1  0  0  0  0
 31 32  1  0  0  0  0
 31 54  1  0  0  0  0
 32 55  1  0  0  0  0
 33 56  1  0  0  0  0
 33 57  1  0  0  0  0
 33 58  1  0  0  0  0
M  END
> <rseq>
1

> <mseq>
353

> <S>
-6.459774

> <rmsd_refine>
1.070434

> <E_conf>
-61.25762

> <E_score1>
-11.10902

> <E_refine>
-36.68608

> <E_score2>
-6.459774

>  <$File>
outputs/pdb_4j58_cleaned.pdb_2024_06_17__22_47_40_V2_BS398_MIN1_/SDF/sdf_db.sdf

> <Rec_index>
1

>  <PLIF_raw>
[[26,13],[1071,954],[71,62],[3,2],[2.1,1.2]]

> <FP:PLIF>
20 7 14

>  <PLIF_ligidx>
[13,26,26]

$$$$
353
  MOE2022           3D

 60 63  0  0  1  0  0  0  0  0999 V2000
    3.7790   18.1530   18.8660 O   0  0  0  0  0  0  0  0  0  0  0  0
    2.7760   17.8420   18.2300 C   0  0  0  0  0  0  0  0  0  0  0  0
    1.7030   17.0410   18.8040 C   0  0  0  0  0  0  0  0  0  0  0  0
    2.6750   18.2640   16.8940 N   0  0  0  0  0  0  0  0  0  0  0  0
    0.5120   16.8590   18.0870 C   0  0  0  0  0  0  0  0  0  0  0  0
    1.4550   18.0760   16.1610 C   0  0  0  0  0  0  0  0  0  0  0  0
   -0.5550   16.0980   18.5930 C   0  0  0  0  0  0  0  0  0  0  0  0
    0.3960   17.4500   16.8290 N   0  0  0  0  0  0  0  0  0  0  0  0
    1.3170   18.4750   14.8650 C   0  0  0  0  0  0  0  0  0  0  0  0
    1.7940   16.4130   20.0610 C   0  0  0  0  0  0  0  0  0  0  0  0
    2.4080   19.0900   14.1670 C   0  0  0  0  0  0  0  0  0  0  0  0
   -1.8340   15.9020   17.7990 C   0  0  0  0  0  0  0  0  0  0  0  0
    3.8960   18.7050   16.1270 C   0  0  2  0  0  0  0  0  0  0  0  0
    4.7860   19.6080   16.8570 O   0  0  0  0  0  0  0  0  0  0  0  0
    2.1390   19.4970   12.8690 O   0  0  0  0  0  0  0  0  0  0  0  0
    3.6180   19.2530   14.7390 C   0  0  0  0  0  0  0  0  0  0  0  0
    3.0320   20.0780   11.8750 C   0  0  0  0  0  0  0  0  0  0  0  0
    4.3830   20.9840   17.0820 C   0  0  2  0  0  0  0  0  0  0  0  0
    5.2890   21.9310   16.2860 C   0  0  0  0  0  0  0  0  0  0  0  0
    3.2130   19.1770   10.6520 C   0  0  0  0  0  0  0  0  0  0  0  0
    6.4570   22.2760   17.2190 C   0  0  2  0  0  0  0  0  0  0  0  0
    4.0060   18.0030   10.9400 O   0  0  0  0  0  0  0  0  0  0  0  0
    4.1840   17.0660    9.8320 C   0  0  0  0  0  0  0  0  0  0  0  0
    5.7560   22.3940   18.5760 C   0  0  0  0  0  0  0  0  0  0  0  0
    5.0430   15.8740   10.2000 C   0  0  0  0  0  0  0  0  0  0  0  0
    6.2790   15.9740   10.0340 O   0  5  0  0  0  0  0  0  0  0  0  0
    4.6110   21.3740   18.5500 C   0  0  0  0  0  0  0  0  0  0  0  0
    4.4710   14.8610   10.6540 O   0  0  0  0  0  0  0  0  0  0  0  0
   -0.4280   15.5170   19.8520 C   0  0  0  0  0  0  0  0  0  0  0  0
    2.9230   16.4850   20.8160 O   0  0  0  0  0  0  0  0  0  0  0  0
    7.0280   23.5160   16.8580 O   0  0  0  0  0  0  0  0  0  0  0  0
    7.5690   21.2110   17.2330 C   0  0  0  0  0  0  0  0  0  0  0  0
    0.7430   15.6740   20.5870 C   0  0  0  0  0  0  0  0  0  0  0  0
   -0.4900   17.3220   16.3160 H   0  0  0  0  0  0  0  0  0  0  0  0
    0.4010   18.3350   14.3510 H   0  0  0  0  0  0  0  0  0  0  0  0
   -2.5430   15.2750   18.3400 H   0  0  0  0  0  0  0  0  0  0  0  0
   -2.3110   16.8630   17.6050 H   0  0  0  0  0  0  0  0  0  0  0  0
   -1.6160   15.4190   16.8450 H   0  0  0  0  0  0  0  0  0  0  0  0
    4.4870   17.8130   15.9710 H   0  0  0  0  0  0  0  0  0  0  0  0
    4.4180   19.7220   14.2400 H   0  0  0  0  0  0  0  0  0  0  0  0
    2.5870   21.0170   11.5450 H   0  0  0  0  0  0  0  0  0  0  0  0
    4.0060   20.3000   12.3030 H   0  0  0  0  0  0  0  0  0  0  0  0
    3.3350   21.0960   16.8000 H   0  0  0  0  0  0  0  0  0  0  0  0
    5.6340   21.4720   15.3600 H   0  0  0  0  0  0  0  0  0  0  0  0
    4.7270   22.8370   16.0550 H   0  0  0  0  0  0  0  0  0  0  0  0
    2.2340   18.8610   10.2900 H   0  0  0  0  0  0  0  0  0  0  0  0
    3.7200   19.7420    9.8690 H   0  0  0  0  0  0  0  0  0  0  0  0
    3.2040   16.7320    9.5210 H   0  0  0  0  0  0  0  0  0  0  0  0
    4.6370   17.6060    9.0120 H   0  0  0  0  0  0  0  0  0  0  0  0
    6.4410   22.1950   19.4010 H   0  0  0  0  0  0  0  0  0  0  0  0
    5.3350   23.3950   18.6850 H   0  0  0  0  0  0  0  0  0  0  0  0
    3.7060   21.8200   18.9650 H   0  0  0  0  0  0  0  0  0  0  0  0
    4.8870   20.4980   19.1370 H   0  0  0  0  0  0  0  0  0  0  0  0
   -1.2260   14.9480   20.2560 H   0  0  0  0  0  0  0  0  0  0  0  0
    3.5880   17.0390   20.3550 H   0  0  0  0  0  0  0  0  0  0  0  0
    7.4600   23.4150   16.0080 H   0  0  0  0  0  0  0  0  0  0  0  0
    7.9720   21.0790   16.2290 H   0  0  0  0  0  0  0  0  0  0  0  0
    8.3740   21.5280   17.8970 H   0  0  0  0  0  0  0  0  0  0  0  0
    7.1870   20.2550   17.5900 H   0  0  0  0  0  0  0  0  0  0  0  0
    0.8440   15.2330   21.5420 H   0  0  0  0  0  0  0  0  0  0  0  0
  1  2  2  0  0  0  0
  2  3  1  0  0  0  0
  2  4  1  0  0  0  0
  3  5  1  0  0  0  0
  3 10  2  0  0  0  0
  4  6  1  0  0  0  0
  4 13  1  0  0  0  0
  5  7  2  0  0  0  0
  5  8  1  0  0  0  0
  6  8  1  0  0  0  0
  6  9  2  0  0  0  0
  7 12  1  0  0  0  0
  7 29  1  0  0  0  0
  8 34  1  0  0  0  0
  9 11  1  0  0  0  0
  9 35  1  0  0  0  0
 10 30  1  0  0  0  0
 10 33  1  0  0  0  0
 11 15  1  0  0  0  0
 11 16  2  0  0  0  0
 12 36  1  0  0  0  0
 12 37  1  0  0  0  0
 12 38  1  0  0  0  0
 13 14  1  0  0  0  0
 13 16  1  0  0  0  0
 13 39  1  0  0  0  0
 14 18  1  0  0  0  0
 15 17  1  0  0  0  0
 16 40  1  0  0  0  0
 17 20  1  0  0  0  0
 17 41  1  0  0  0  0
 17 42  1  0  0  0  0
 18 19  1  0  0  0  0
 18 27  1  0  0  0  0
 18 43  1  0  0  0  0
 19 21  1  0  0  0  0
 19 44  1  0  0  0  0
 19 45  1  0  0  0  0
 20 22  1  0  0  0  0
 20 46  1  0  0  0  0
 20 47  1  0  0  0  0
 21 24  1  0  0  0  0
 21 31  1  0  0  0  0
 21 32  1  0  0  0  0
 22 23  1  0  0  0  0
 23 25  1  0  0  0  0
 23 48  1  0  0  0  0
 23 49  1  0  0  0  0
 24 27  1  0  0  0  0
 24 50  1  0  0  0  0
 24 51  1  0  0  0  0
 25 26  1  0  0  0  0
 25 28  2  0  0  0  0
 27 52  1  0  0  0  0
 27 53  1  0  0  0  0
 29 33  2  0  0  0  0
 29 54  1  0  0  0  0
 30 55  1  0  0  0  0
 31 56  1  0  0  0  0
 32 57  1  0  0  0  0
 32 58  1  0  0  0  0
 32 59  1  0  0  0  0
 33 60  1  0  0  0  0
M  CHG  1  26  -1
M  END
> <rseq>
1

> <mseq>
354

> <S>
-6.515345

> <rmsd_refine>
1.305129

> <E_conf>
-177.1304

> <E_score1>
-12.47284

> <E_refine>
-33.07235

> <E_score2>
-6.515345

>  <$File>
outputs/pdb_4j58_cleaned.pdb_2024_06_17__22_47_40_V2_BS398_MIN1_/SDF/sdf_db.sdf

> <Rec_index>
1

>  <PLIF_raw>
[[26,26,26,28,2,4,6,8,5,3,3,10,33,29,7,5],[823,823,829,823,954,954,954,954,954,954,1519,1519,1519,1519,1519,1519],[54,54,54,54,62,62,62,62,62,62,102,102,102,102,102,102],[2,7,7,7,10,10,10,10,10,10,10,10,10,10,10,10],[2.1,4.647172721,0.5842621505,1.195988351,1.3,1.3,1.3,1.3,1.3,1.3,0.7,0.7,0.7,0.7,0.7,0.7]]

> <FP:PLIF>
6 19 1 16 21 30 22

>  <PLIF_ligidx>
[26,26,[26,26,28],26,[2,4,6,8,5,3],[2,4,6,8,5,3],[3,10,33,29,7,5]]

$$$$
354
  MOE2022           3D

 58 61  0  0  1  0  0  0  0  0999 V2000
    1.4540   16.0970   20.5320 C   0  0  0  0  0  0  0  0  0  0  0  0
    0.1180   15.7510   20.3660 C   0  0  0  0  0  0  0  0  0  0  0  0
    2.1650   16.6510   19.4720 C   0  0  0  0  0  0  0  0  0  0  0  0
   -0.5030   15.9430   19.1380 C   0  0  0  0  0  0  0  0  0  0  0  0
    0.2040   16.5060   18.0820 C   0  0  0  0  0  0  0  0  0  0  0  0
    1.5390   16.8760   18.2420 C   0  0  0  0  0  0  0  0  0  0  0  0
    2.2710   17.5030   17.0650 C   0  0  1  0  0  0  0  0  0  0  0  0
    3.3130   18.4490   17.5030 N   0  0  0  0  0  0  0  0  0  0  0  0
    2.7880   16.4470   16.0950 C   0  0  0  0  0  0  0  0  0  0  0  0
    4.0610   19.2420   16.6630 C   0  0  0  0  0  0  0  0  0  0  0  0
    2.2340   16.4360   14.8740 N   0  0  0  0  0  0  0  0  0  0  0  0
    3.8130   19.1900   15.4590 O   0  0  0  0  0  0  0  0  0  0  0  0
    5.1160   20.0870   17.2440 C   0  0  0  0  0  0  0  0  0  0  0  0
    3.7000   15.6780   16.3950 O   0  0  0  0  0  0  0  0  0  0  0  0
    2.7460   15.6620   13.7510 C   0  0  1  0  0  0  0  0  0  0  0  0
    1.8450   14.5120   13.3440 C   0  0  0  0  0  0  0  0  0  0  0  0
    2.8730   16.4870   12.4740 C   0  0  0  0  0  0  0  0  0  0  0  0
    5.5510   19.8820   18.5650 C   0  0  0  0  0  0  0  0  0  0  0  0
    2.1530   14.3130   11.8570 C   0  0  0  0  0  0  0  0  0  0  0  0
    5.7490   21.1140   16.5050 C   0  0  0  0  0  0  0  0  0  0  0  0
    2.7110   15.5790   11.3350 N   0  0  0  0  0  0  0  0  0  0  0  0
    6.5890   20.6470   19.0870 C   0  0  0  0  0  0  0  0  0  0  0  0
    5.3580   21.4190   15.2320 O   0  0  0  0  0  0  0  0  0  0  0  0
    3.7380   15.6720   10.3610 C   0  0  0  0  0  0  0  0  0  0  0  0
    7.2230   21.6330   18.3350 C   0  0  0  0  0  0  0  0  0  0  0  0
    6.7950   21.8690   17.0360 C   0  0  0  0  0  0  0  0  0  0  0  0
    7.0000   20.4240   20.3670 O   0  0  0  0  0  0  0  0  0  0  0  0
    3.5970   16.6930    9.4160 C   0  0  0  0  0  0  0  0  0  0  0  0
    4.5590   16.8710    8.4260 C   0  0  0  0  0  0  0  0  0  0  0  0
    4.8810   14.8490   10.3050 C   0  0  0  0  0  0  0  0  0  0  0  0
    5.6730   16.0400    8.3690 C   0  0  0  0  0  0  0  0  0  0  0  0
    5.1290   13.8710   11.2280 O   0  0  0  0  0  0  0  0  0  0  0  0
    5.8360   15.0280    9.3120 C   0  0  0  0  0  0  0  0  0  0  0  0
    1.9330   15.9410   21.4650 H   0  0  0  0  0  0  0  0  0  0  0  0
   -0.4330   15.3450   21.1710 H   0  0  0  0  0  0  0  0  0  0  0  0
    3.1850   16.9000   19.6110 H   0  0  0  0  0  0  0  0  0  0  0  0
   -1.5180   15.6690   19.0080 H   0  0  0  0  0  0  0  0  0  0  0  0
   -0.2810   16.6550   17.1520 H   0  0  0  0  0  0  0  0  0  0  0  0
    1.5370   18.0960   16.5350 H   0  0  0  0  0  0  0  0  0  0  0  0
    3.4530   18.5390   18.5200 H   0  0  0  0  0  0  0  0  0  0  0  0
    1.4850   17.0830   14.6770 H   0  0  0  0  0  0  0  0  0  0  0  0
    3.7310   15.2540   13.9750 H   0  0  0  0  0  0  0  0  0  0  0  0
    2.0520   13.6130   13.9210 H   0  0  0  0  0  0  0  0  0  0  0  0
    0.7990   14.8040   13.4550 H   0  0  0  0  0  0  0  0  0  0  0  0
    2.0900   17.2320   12.4360 H   0  0  0  0  0  0  0  0  0  0  0  0
    3.8110   17.0240   12.4480 H   0  0  0  0  0  0  0  0  0  0  0  0
    5.1080   19.1380   19.1740 H   0  0  0  0  0  0  0  0  0  0  0  0
    2.8280   13.4820   11.7250 H   0  0  0  0  0  0  0  0  0  0  0  0
    1.2540   14.0490   11.3170 H   0  0  0  0  0  0  0  0  0  0  0  0
    4.5980   20.8550   14.9740 H   0  0  0  0  0  0  0  0  0  0  0  0
    8.0190   22.1980   18.7480 H   0  0  0  0  0  0  0  0  0  0  0  0
    7.2580   22.6220   16.4520 H   0  0  0  0  0  0  0  0  0  0  0  0
    7.8270   20.9160   20.5490 H   0  0  0  0  0  0  0  0  0  0  0  0
    2.7510   17.3300    9.4500 H   0  0  0  0  0  0  0  0  0  0  0  0
    4.4410   17.6430    7.7100 H   0  0  0  0  0  0  0  0  0  0  0  0
    6.3970   16.1800    7.6110 H   0  0  0  0  0  0  0  0  0  0  0  0
    4.4010   13.8220   11.8790 H   0  0  0  0  0  0  0  0  0  0  0  0
    6.6880   14.4000    9.2750 H   0  0  0  0  0  0  0  0  0  0  0  0
  1  2  2  0  0  0  0
  1  3  1  0  0  0  0
  1 34  1  0  0  0  0
  2  4  1  0  0  0  0
  2 35  1  0  0  0  0
  3  6  2  0  0  0  0
  3 36  1  0  0  0  0
  4  5  2  0  0  0  0
  4 37  1  0  0  0  0
  5  6  1  0  0  0  0
  5 38  1  0  0  0  0
  6  7  1  0  0  0  0
  7  8  1  0  0  0  0
  7  9  1  0  0  0  0
  7 39  1  0  0  0  0
  8 10  1  0  0  0  0
  8 40  1  0  0  0  0
  9 11  1  0  0  0  0
  9 14  2  0  0  0  0
 10 12  2  0  0  0  0
 10 13  1  0  0  0  0
 11 15  1  0  0  0  0
 11 41  1  0  0  0  0
 13 18  2  0  0  0  0
 13 20  1  0  0  0  0
 15 16  1  0  0  0  0
 15 17  1  0  0  0  0
 15 42  1  0  0  0  0
 16 19  1  0  0  0  0
 16 43  1  0  0  0  0
 16 44  1  0  0  0  0
 17 21  1  0  0  0  0
 17 45  1  0  0  0  0
 17 46  1  0  0  0  0
 18 22  1  0  0  0  0
 18 47  1  0  0  0  0
 19 21  1  0  0  0  0
 19 48  1  0  0  0  0
 19 49  1  0  0  0  0
 20 23  1  0  0  0  0
 20 26  2  0  0  0  0
 21 24  1  0  0  0  0
 22 25  2  0  0  0  0
 22 27  1  0  0  0  0
 23 50  1  0  0  0  0
 24 28  1  0  0  0  0
 24 30  2  0  0  0  0
 25 26  1  0  0  0  0
 25 51  1  0  0  0  0
 26 52  1  0  0  0  0
 27 53  1  0  0  0  0
 28 29  2  0  0  0  0
 28 54  1  0  0  0  0
 29 31  1  0  0  0  0
 29 55  1  0  0  0  0
 30 32  1  0  0  0  0
 30 33  1  0  0  0  0
 31 33  2  0  0  0  0
 31 56  1  0  0  0  0
 32 57  1  0  0  0  0
 33 58  1  0  0  0  0
M  END
> <rseq>
1

> <mseq>
355

> <S>
-7.424636

> <rmsd_refine>
1.446038

> <E_conf>
8.864929

> <E_score1>
-9.807877

> <E_refine>
-46.56255

> <E_score2>
-7.424636

>  <$File>
outputs/pdb_4j58_cleaned.pdb_2024_06_17__22_47_40_V2_BS398_MIN1_/SDF/sdf_db.sdf

> <Rec_index>
1

>  <PLIF_raw>
[[14,24,30,33,31,29,28,1,3,6,5,4,2],[954,823,823,823,823,823,823,1519,1519,1519,1519,1519,1519],[62,54,54,54,54,54,54,102,102,102,102,102,102],[2,10,10,10,10,10,10,10,10,10,10,10,10],[1.3,0.7,0.7,0.7,0.7,0.7,0.7,0.7,0.7,0.7,0.7,0.7,0.7]]

> <FP:PLIF>
2 20 22

>  <PLIF_ligidx>
[[24,30,33,31,29,28],14,[1,3,6,5,4,2]]

$$$$
355
  MOE2022           3D

 61 63  0  0  1  0  0  0  0  0999 V2000
    7.0610   20.9360   19.4120 C   0  0  0  0  0  0  0  0  0  0  0  0
    6.2090   19.8810   19.1060 C   0  0  0  0  0  0  0  0  0  0  0  0
    4.9270   20.1440   18.6260 C   0  0  0  0  0  0  0  0  0  0  0  0
    4.1260   19.0580   18.2940 O   0  0  0  0  0  0  0  0  0  0  0  0
    3.0110   19.0910   17.3350 C   0  0  1  0  0  0  0  0  0  0  0  0
    4.4860   21.4630   18.4760 C   0  0  0  0  0  0  0  0  0  0  0  0
    6.6330   22.2500   19.2470 C   0  0  0  0  0  0  0  0  0  0  0  0
    5.3460   22.5120   18.7830 C   0  0  0  0  0  0  0  0  0  0  0  0
    3.5200   19.2600   15.9010 C   0  0  0  0  0  0  0  0  0  0  0  0
    4.3180   20.1640   15.6550 O   0  0  0  0  0  0  0  0  0  0  0  0
    2.0870   17.8740   17.5510 C   0  0  2  0  0  0  0  0  0  0  0  0
    3.0290   18.4840   14.9030 N   0  0  0  0  0  0  0  0  0  0  0  0
    1.1340   17.6510   16.3540 C   0  0  2  0  0  0  0  0  0  0  0  0
    2.0790   17.3670   15.1500 C   0  0  1  0  0  0  0  0  0  0  0  0
    1.3710   18.0390   18.7610 O   0  0  0  0  0  0  0  0  0  0  0  0
    3.3920   18.7680   13.5050 C   0  0  0  0  0  0  0  0  0  0  0  0
    0.3150   18.8630   16.0870 N   0  0  0  0  0  0  0  0  0  0  0  0
    0.2050   16.4520   16.6610 C   0  0  0  0  0  0  0  0  0  0  0  0
   -0.8450   16.3080   15.7230 O   0  0  0  0  0  0  0  0  0  0  0  0
    1.3630   17.0210   13.9070 O   0  0  0  0  0  0  0  0  0  0  0  0
    1.2660   15.6000   13.5120 C   0  0  2  0  0  0  0  0  0  0  0  0
    2.6400   14.9690   13.1770 C   0  0  0  0  0  0  0  0  0  0  0  0
    0.2340   15.4220   12.4040 C   0  0  0  0  0  0  0  0  0  0  0  0
   -0.7770   14.7410   12.5480 O   0  0  0  0  0  0  0  0  0  0  0  0
    2.9630   14.7860   11.6820 C   0  0  2  0  0  0  0  0  0  0  0  0
    0.4480   15.9570   11.1830 O   0  0  0  0  0  0  0  0  0  0  0  0
    1.5810   16.8020   10.8400 C   0  0  0  0  0  0  0  0  0  0  0  0
    4.2380   14.1850   11.5950 O   0  0  0  0  0  0  0  0  0  0  0  0
    2.9500   16.0960   10.8670 C   0  0  2  0  0  0  0  0  0  0  0  0
    3.4120   15.8700    9.5000 O   0  0  0  0  0  0  0  0  0  0  0  0
    4.6980   16.0190    9.1190 C   0  0  0  0  0  0  0  0  0  0  0  0
    5.5740   16.3550    9.9160 O   0  0  0  0  0  0  0  0  0  0  0  0
    5.0330   15.7780    7.6550 C   0  0  0  0  0  0  0  0  0  0  0  0
    8.0420   20.7410   19.7630 H   0  0  0  0  0  0  0  0  0  0  0  0
    6.5400   18.8850   19.2250 H   0  0  0  0  0  0  0  0  0  0  0  0
    2.4160   19.9630   17.5620 H   0  0  0  0  0  0  0  0  0  0  0  0
    3.5100   21.6750   18.1270 H   0  0  0  0  0  0  0  0  0  0  0  0
    7.2880   23.0510   19.4740 H   0  0  0  0  0  0  0  0  0  0  0  0
    5.0230   23.5130   18.6600 H   0  0  0  0  0  0  0  0  0  0  0  0
    2.7230   16.9940   17.6550 H   0  0  0  0  0  0  0  0  0  0  0  0
    2.6680   16.4980   15.4120 H   0  0  0  0  0  0  0  0  0  0  0  0
    1.9690   18.3980   19.4240 H   0  0  0  0  0  0  0  0  0  0  0  0
    4.1190   19.5590   13.3940 H   0  0  0  0  0  0  0  0  0  0  0  0
    3.8120   17.8920   13.0400 H   0  0  0  0  0  0  0  0  0  0  0  0
    2.5270   19.0740   12.9330 H   0  0  0  0  0  0  0  0  0  0  0  0
    0.9120   19.6420   15.8460 H   0  0  0  0  0  0  0  0  0  0  0  0
   -0.2300   19.0900   16.9080 H   0  0  0  0  0  0  0  0  0  0  0  0
    0.7900   15.5370   16.6880 H   0  0  0  0  0  0  0  0  0  0  0  0
   -0.2600   16.5870   17.6370 H   0  0  0  0  0  0  0  0  0  0  0  0
   -1.2500   17.1700   15.5920 H   0  0  0  0  0  0  0  0  0  0  0  0
    0.8920   15.0750   14.3790 H   0  0  0  0  0  0  0  0  0  0  0  0
    3.4380   15.5410   13.6470 H   0  0  0  0  0  0  0  0  0  0  0  0
    2.6390   13.9750   13.6240 H   0  0  0  0  0  0  0  0  0  0  0  0
    2.2440   14.0930   11.2430 H   0  0  0  0  0  0  0  0  0  0  0  0
    1.4140   17.2060    9.8410 H   0  0  0  0  0  0  0  0  0  0  0  0
    1.6000   17.6500   11.5220 H   0  0  0  0  0  0  0  0  0  0  0  0
    4.2360   13.3670   12.1030 H   0  0  0  0  0  0  0  0  0  0  0  0
    3.6540   16.7880   11.3210 H   0  0  0  0  0  0  0  0  0  0  0  0
    4.3540   16.3560    7.0290 H   0  0  0  0  0  0  0  0  0  0  0  0
    6.0600   16.0860    7.4560 H   0  0  0  0  0  0  0  0  0  0  0  0
    4.9140   14.7190    7.4280 H   0  0  0  0  0  0  0  0  0  0  0  0
  1  2  1  0  0  0  0
  1  7  2  0  0  0  0
  1 34  1  0  0  0  0
  2  3  2  0  0  0  0
  2 35  1  0  0  0  0
  3  4  1  0  0  0  0
  3  6  1  0  0  0  0
  4  5  1  0  0  0  0
  5  9  1  0  0  0  0
  5 11  1  0  0  0  0
  5 36  1  0  0  0  0
  6  8  2  0  0  0  0
  6 37  1  0  0  0  0
  7  8  1  0  0  0  0
  7 38  1  0  0  0  0
  8 39  1  0  0  0  0
  9 10  2  0  0  0  0
  9 12  1  0  0  0  0
 11 13  1  0  0  0  0
 11 15  1  0  0  0  0
 11 40  1  0  0  0  0
 12 14  1  0  0  0  0
 12 16  1  0  0  0  0
 13 14  1  0  0  0  0
 13 17  1  0  0  0  0
 13 18  1  0  0  0  0
 14 20  1  0  0  0  0
 14 41  1  0  0  0  0
 15 42  1  0  0  0  0
 16 43  1  0  0  0  0
 16 44  1  0  0  0  0
 16 45  1  0  0  0  0
 17 46  1  0  0  0  0
 17 47  1  0  0  0  0
 18 19  1  0  0  0  0
 18 48  1  0  0  0  0
 18 49  1  0  0  0  0
 19 50  1  0  0  0  0
 20 21  1  0  0  0  0
 21 22  1  0  0  0  0
 21 23  1  0  0  0  0
 21 51  1  0  0  0  0
 22 25  1  0  0  0  0
 22 52  1  0  0  0  0
 22 53  1  0  0  0  0
 23 24  2  0  0  0  0
 23 26  1  0  0  0  0
 25 28  1  0  0  0  0
 25 29  1  0  0  0  0
 25 54  1  0  0  0  0
 26 27  1  0  0  0  0
 27 29  1  0  0  0  0
 27 55  1  0  0  0  0
 27 56  1  0  0  0  0
 28 57  1  0  0  0  0
 29 30  1  0  0  0  0
 29 58  1  0  0  0  0
 30 31  1  0  0  0  0
 31 32  2  0  0  0  0
 31 33  1  0  0  0  0
 33 59  1  0  0  0  0
 33 60  1  0  0  0  0
 33 61  1  0  0  0  0
M  END
> <rseq>
1

> <mseq>
356

> <S>
-6.221983

> <rmsd_refine>
1.678228

> <E_conf>
106.3444

> <E_score1>
-11.14925

> <E_refine>
-37.58789

> <E_score2>
-6.221983

>  <$File>
outputs/pdb_4j58_cleaned.pdb_2024_06_17__22_47_40_V2_BS398_MIN1_/SDF/sdf_db.sdf

> <Rec_index>
1

>  <PLIF_raw>
[[15,28,32],[1504,1056,823],[101,70,54],[3,3,2],[0.5,2.4,4.3]]

> <FP:PLIF>
6 19 3 4 8

>  <PLIF_ligidx>
[32,32,28,28,15]

$$$$
356
  MOE2022           3D

 58 60  0  0  1  0  0  0  0  0999 V2000
    2.6200   16.2190   20.9930 C   0  0  0  0  0  0  0  0  0  0  0  0
    1.3610   15.8120   21.4030 C   0  0  0  0  0  0  0  0  0  0  0  0
    2.7880   16.8100   19.7500 C   0  0  0  0  0  0  0  0  0  0  0  0
    0.2700   15.9670   20.5540 C   0  0  0  0  0  0  0  0  0  0  0  0
    0.4430   16.5420   19.2980 C   0  0  0  0  0  0  0  0  0  0  0  0
    1.7010   16.9860   18.8940 C   0  0  0  0  0  0  0  0  0  0  0  0
    1.8960   17.6360   17.5350 C   0  0  1  0  0  0  0  0  0  0  0  0
    2.8240   18.7780   17.6570 N   0  0  0  0  0  0  0  0  0  0  0  0
    2.3190   16.5940   16.5050 C   0  0  0  0  0  0  0  0  0  0  0  0
    3.6490   19.2840   16.6780 C   0  0  0  0  0  0  0  0  0  0  0  0
    1.4880   16.3910   15.4700 N   0  0  0  0  0  0  0  0  0  0  0  0
    3.3690   19.0630   15.4990 O   0  0  0  0  0  0  0  0  0  0  0  0
    4.8260   20.0470   17.1080 C   0  0  0  0  0  0  0  0  0  0  0  0
    3.3970   16.0040   16.5900 O   0  0  0  0  0  0  0  0  0  0  0  0
    1.8370   15.5640   14.3190 C   0  0  1  0  0  0  0  0  0  0  0  0
    0.7090   15.5870   13.2780 C   0  0  0  0  0  0  0  0  0  0  0  0
    3.0330   16.1590   13.5730 C   0  0  0  0  0  0  0  0  0  0  0  0
    5.3940   19.8150   18.3760 C   0  0  0  0  0  0  0  0  0  0  0  0
    1.1570   16.5720   12.1880 C   0  0  0  0  0  0  0  0  0  0  0  0
    5.4490   21.0040   16.2750 C   0  0  0  0  0  0  0  0  0  0  0  0
    2.5080   17.1000   12.5450 N   0  3  2  0  0  0  0  0  0  0  0  0
    6.5420   20.4920   18.7680 C   0  0  0  0  0  0  0  0  0  0  0  0
    4.9390   21.3010   15.0420 O   0  0  0  0  0  0  0  0  0  0  0  0
    3.4730   17.3580   11.3390 C   0  0  0  0  0  0  0  0  0  0  0  0
    7.1510   21.4170   17.9130 C   0  0  0  0  0  0  0  0  0  0  0  0
    8.2930   22.0600   18.2960 O   0  0  0  0  0  0  0  0  0  0  0  0
    7.0790   20.2410   20.0060 O   0  0  0  0  0  0  0  0  0  0  0  0
    6.6030   21.6850   16.6650 C   0  0  0  0  0  0  0  0  0  0  0  0
    3.7310   18.6360   10.9870 C   0  0  0  0  0  0  0  0  0  0  0  0
    4.0810   16.2000   10.6680 C   0  0  0  0  0  0  0  0  0  0  0  0
    3.1500   19.8500   11.6820 C   0  0  0  0  0  0  0  0  0  0  0  0
    3.5370   15.0680   10.7630 O   0  5  0  0  0  0  0  0  0  0  0  0
    5.1790   16.3470   10.0650 O   0  0  0  0  0  0  0  0  0  0  0  0
    3.4520   16.0800   21.6280 H   0  0  0  0  0  0  0  0  0  0  0  0
    1.2490   15.3900   22.3640 H   0  0  0  0  0  0  0  0  0  0  0  0
    3.7540   17.1230   19.4600 H   0  0  0  0  0  0  0  0  0  0  0  0
   -0.6940   15.6510   20.8610 H   0  0  0  0  0  0  0  0  0  0  0  0
   -0.3900   16.6470   18.6510 H   0  0  0  0  0  0  0  0  0  0  0  0
    0.9410   18.0430   17.2290 H   0  0  0  0  0  0  0  0  0  0  0  0
    2.9810   19.0990   18.6260 H   0  0  0  0  0  0  0  0  0  0  0  0
    0.6090   16.8850   15.4410 H   0  0  0  0  0  0  0  0  0  0  0  0
    2.0630   14.5470   14.6350 H   0  0  0  0  0  0  0  0  0  0  0  0
    0.6120   14.5970   12.8310 H   0  0  0  0  0  0  0  0  0  0  0  0
   -0.2450   15.8860   13.7150 H   0  0  0  0  0  0  0  0  0  0  0  0
    3.7280   16.6200   14.2600 H   0  0  0  0  0  0  0  0  0  0  0  0
    3.5780   15.3430   13.1190 H   0  0  0  0  0  0  0  0  0  0  0  0
    4.9610   19.1130   19.0390 H   0  0  0  0  0  0  0  0  0  0  0  0
    1.1680   16.0540   11.2370 H   0  0  0  0  0  0  0  0  0  0  0  0
    0.4240   17.3580   12.0700 H   0  0  0  0  0  0  0  0  0  0  0  0
    2.3580   18.0290   13.0420 H   0  0  0  0  0  0  0  0  0  0  0  0
    4.1290   20.7730   14.8800 H   0  0  0  0  0  0  0  0  0  0  0  0
    8.5850   21.7250   19.1680 H   0  0  0  0  0  0  0  0  0  0  0  0
    6.6170   19.4960   20.4370 H   0  0  0  0  0  0  0  0  0  0  0  0
    7.0560   22.3940   16.0200 H   0  0  0  0  0  0  0  0  0  0  0  0
    4.3940   18.8540   10.1880 H   0  0  0  0  0  0  0  0  0  0  0  0
    3.7030   20.0850   12.5810 H   0  0  0  0  0  0  0  0  0  0  0  0
    3.1930   20.7180   11.0390 H   0  0  0  0  0  0  0  0  0  0  0  0
    2.1130   19.7110   11.9540 H   0  0  0  0  0  0  0  0  0  0  0  0
  1  2  2  0  0  0  0
  1  3  1  0  0  0  0
  1 34  1  0  0  0  0
  2  4  1  0  0  0  0
  2 35  1  0  0  0  0
  3  6  2  0  0  0  0
  3 36  1  0  0  0  0
  4  5  2  0  0  0  0
  4 37  1  0  0  0  0
  5  6  1  0  0  0  0
  5 38  1  0  0  0  0
  6  7  1  0  0  0  0
  7  8  1  0  0  0  0
  7  9  1  0  0  0  0
  7 39  1  0  0  0  0
  8 10  1  0  0  0  0
  8 40  1  0  0  0  0
  9 11  1  0  0  0  0
  9 14  2  0  0  0  0
 10 12  2  0  0  0  0
 10 13  1  0  0  0  0
 11 15  1  0  0  0  0
 11 41  1  0  0  0  0
 13 18  1  0  0  0  0
 13 20  2  0  0  0  0
 15 16  1  0  0  0  0
 15 17  1  0  0  0  0
 15 42  1  0  0  0  0
 16 19  1  0  0  0  0
 16 43  1  0  0  0  0
 16 44  1  0  0  0  0
 17 21  1  0  0  0  0
 17 45  1  0  0  0  0
 17 46  1  0  0  0  0
 18 22  2  0  0  0  0
 18 47  1  0  0  0  0
 19 21  1  0  0  0  0
 19 48  1  0  0  0  0
 19 49  1  0  0  0  0
 20 23  1  0  0  0  0
 20 28  1  0  0  0  0
 21 24  1  0  0  0  0
 21 50  1  0  0  0  0
 22 25  1  0  0  0  0
 22 27  1  0  0  0  0
 23 51  1  0  0  0  0
 24 29  2  0  0  0  0
 24 30  1  0  0  0  0
 25 26  1  0  0  0  0
 25 28  2  0  0  0  0
 26 52  1  0  0  0  0
 27 53  1  0  0  0  0
 28 54  1  0  0  0  0
 29 31  1  0  0  0  0
 29 55  1  0  0  0  0
 30 32  1  0  0  0  0
 30 33  2  0  0  0  0
 31 56  1  0  0  0  0
 31 57  1  0  0  0  0
 31 58  1  0  0  0  0
M  CHG  1  21   1
M  CHG  1  32  -1
M  END
> <rseq>
1

> <mseq>
357

> <S>
-7.111959

> <rmsd_refine>
1.591453

> <E_conf>
28.19491

> <E_score1>
-10.08646

> <E_refine>
-39.31306

> <E_score2>
-7.111959

>  <$File>
outputs/pdb_4j58_cleaned.pdb_2024_06_17__22_47_40_V2_BS398_MIN1_/SDF/sdf_db.sdf

> <Rec_index>
1

>  <PLIF_raw>
[[8,14,33,33,33],[1504,954,823,823,829],[101,62,54,54,54],[3,2,2,7,7],[1.1,2.6,2.5,3.944148841,0.6458382048]]

> <FP:PLIF>
6 19 1 16 20 23 8

>  <PLIF_ligidx>
[33,33,[33,33],33,14,14,8]

$$$$
357
  MOE2022           3D

 58 60  0  0  1  0  0  0  0  0999 V2000
    7.1920   20.9970   19.4200 C   0  0  0  0  0  0  0  0  0  0  0  0
    6.3620   19.9180   19.1350 C   0  0  0  0  0  0  0  0  0  0  0  0
    5.0610   20.1480   18.6920 C   0  0  0  0  0  0  0  0  0  0  0  0
    4.2880   19.0450   18.3610 O   0  0  0  0  0  0  0  0  0  0  0  0
    3.1510   19.0610   17.4270 C   0  0  1  0  0  0  0  0  0  0  0  0
    4.5750   21.4530   18.5640 C   0  0  0  0  0  0  0  0  0  0  0  0
    6.7200   22.2990   19.2740 C   0  0  0  0  0  0  0  0  0  0  0  0
    5.4130   22.5260   18.8520 C   0  0  0  0  0  0  0  0  0  0  0  0
    3.6030   19.3180   15.9900 C   0  0  0  0  0  0  0  0  0  0  0  0
    4.4830   20.1510   15.7740 O   0  0  0  0  0  0  0  0  0  0  0  0
    2.3140   17.7780   17.5900 C   0  0  2  0  0  0  0  0  0  0  0  0
    2.9900   18.6820   14.9630 N   0  0  0  0  0  0  0  0  0  0  0  0
    1.2160   17.6860   16.5050 C   0  0  2  0  0  0  0  0  0  0  0  0
    1.9650   17.6190   15.1370 C   0  0  1  0  0  0  0  0  0  0  0  0
    1.7650   17.7450   18.8980 O   0  0  0  0  0  0  0  0  0  0  0  0
    3.3930   18.9630   13.5710 C   0  0  0  0  0  0  0  0  0  0  0  0
    0.3360   18.8840   16.5510 N   0  0  0  0  0  0  0  0  0  0  0  0
    0.3820   16.4000   16.7360 C   0  0  0  0  0  0  0  0  0  0  0  0
   -0.8660   16.4210   16.0720 O   0  0  0  0  0  0  0  0  0  0  0  0
    1.0470   17.6550   13.9870 O   0  0  0  0  0  0  0  0  0  0  0  0
    0.6640   16.4330   13.2460 C   0  0  2  0  0  0  0  0  0  0  0  0
    1.7790   15.3660   13.1380 C   0  0  0  0  0  0  0  0  0  0  0  0
   -0.0270   16.8380   11.9460 C   0  0  0  0  0  0  0  0  0  0  0  0
   -1.1970   17.2170   11.9560 O   0  0  0  0  0  0  0  0  0  0  0  0
    1.5080   14.3310   12.0340 C   0  0  2  0  0  0  0  0  0  0  0  0
    0.5570   16.7670   10.7310 O   0  0  0  0  0  0  0  0  0  0  0  0
    1.8500   16.2440   10.2810 C   0  0  1  0  0  0  0  0  0  0  0  0
    2.1120   13.1040   12.3850 O   0  0  0  0  0  0  0  0  0  0  0  0
    3.0260   17.1560   10.6230 C   0  0  0  0  0  0  0  0  0  0  0  0
    4.0960   16.6450   11.0250 O   0  5  0  0  0  0  0  0  0  0  0  0
    2.8790   18.3850   10.4500 O   0  0  0  0  0  0  0  0  0  0  0  0
    2.0230   14.7460   10.6400 C   0  0  2  0  0  0  0  0  0  0  0  0
    1.3420   13.9540    9.6850 O   0  0  0  0  0  0  0  0  0  0  0  0
    8.1880   20.8300   19.7370 H   0  0  0  0  0  0  0  0  0  0  0  0
    6.7250   18.9310   19.2390 H   0  0  0  0  0  0  0  0  0  0  0  0
    2.5110   19.8820   17.7170 H   0  0  0  0  0  0  0  0  0  0  0  0
    3.5840   21.6380   18.2440 H   0  0  0  0  0  0  0  0  0  0  0  0
    7.3570   23.1170   19.4850 H   0  0  0  0  0  0  0  0  0  0  0  0
    5.0570   23.5180   18.7440 H   0  0  0  0  0  0  0  0  0  0  0  0
    2.9870   16.9260   17.4820 H   0  0  0  0  0  0  0  0  0  0  0  0
    2.4930   16.6780   15.1080 H   0  0  0  0  0  0  0  0  0  0  0  0
    2.4330   18.0580   19.5150 H   0  0  0  0  0  0  0  0  0  0  0  0
    4.1520   19.7260   13.4800 H   0  0  0  0  0  0  0  0  0  0  0  0
    3.7830   18.0730   13.1020 H   0  0  0  0  0  0  0  0  0  0  0  0
    2.5580   19.3080   12.9760 H   0  0  0  0  0  0  0  0  0  0  0  0
    0.8690   19.7140   16.3320 H   0  0  0  0  0  0  0  0  0  0  0  0
   -0.0720   18.9690   17.4710 H   0  0  0  0  0  0  0  0  0  0  0  0
    0.9500   15.5370   16.3960 H   0  0  0  0  0  0  0  0  0  0  0  0
    0.1710   16.2750   17.7970 H   0  0  0  0  0  0  0  0  0  0  0  0
   -1.2130   17.3170   16.1220 H   0  0  0  0  0  0  0  0  0  0  0  0
   -0.1190   15.9790   13.8320 H   0  0  0  0  0  0  0  0  0  0  0  0
    2.7460   15.8360   12.9820 H   0  0  0  0  0  0  0  0  0  0  0  0
    1.8220   14.8490   14.0970 H   0  0  0  0  0  0  0  0  0  0  0  0
    0.4310   14.1620   11.9800 H   0  0  0  0  0  0  0  0  0  0  0  0
    1.7880   16.2930    9.2020 H   0  0  0  0  0  0  0  0  0  0  0  0
    1.7740   12.8240   13.2390 H   0  0  0  0  0  0  0  0  0  0  0  0
    3.0830   14.4980   10.5640 H   0  0  0  0  0  0  0  0  0  0  0  0
    1.5180   13.0310    9.8870 H   0  0  0  0  0  0  0  0  0  0  0  0
  1  2  1  0  0  0  0
  1  7  2  0  0  0  0
  1 34  1  0  0  0  0
  2  3  2  0  0  0  0
  2 35  1  0  0  0  0
  3  4  1  0  0  0  0
  3  6  1  0  0  0  0
  4  5  1  0  0  0  0
  5  9  1  0  0  0  0
  5 11  1  0  0  0  0
  5 36  1  0  0  0  0
  6  8  2  0  0  0  0
  6 37  1  0  0  0  0
  7  8  1  0  0  0  0
  7 38  1  0  0  0  0
  8 39  1  0  0  0  0
  9 10  2  0  0  0  0
  9 12  1  0  0  0  0
 11 13  1  0  0  0  0
 11 15  1  0  0  0  0
 11 40  1  0  0  0  0
 12 14  1  0  0  0  0
 12 16  1  0  0  0  0
 13 14  1  0  0  0  0
 13 17  1  0  0  0  0
 13 18  1  0  0  0  0
 14 20  1  0  0  0  0
 14 41  1  0  0  0  0
 15 42  1  0  0  0  0
 16 43  1  0  0  0  0
 16 44  1  0  0  0  0
 16 45  1  0  0  0  0
 17 46  1  0  0  0  0
 17 47  1  0  0  0  0
 18 19  1  0  0  0  0
 18 48  1  0  0  0  0
 18 49  1  0  0  0  0
 19 50  1  0  0  0  0
 20 21  1  0  0  0  0
 21 22  1  0  0  0  0
 21 23  1  0  0  0  0
 21 51  1  0  0  0  0
 22 25  1  0  0  0  0
 22 52  1  0  0  0  0
 22 53  1  0  0  0  0
 23 24  2  0  0  0  0
 23 26  1  0  0  0  0
 25 28  1  0  0  0  0
 25 32  1  0  0  0  0
 25 54  1  0  0  0  0
 26 27  1  0  0  0  0
 27 29  1  0  0  0  0
 27 32  1  0  0  0  0
 27 55  1  0  0  0  0
 28 56  1  0  0  0  0
 29 30  1  0  0  0  0
 29 31  2  0  0  0  0
 32 33  1  0  0  0  0
 32 57  1  0  0  0  0
 33 58  1  0  0  0  0
M  CHG  1  30  -1
M  END
> <rseq>
1

> <mseq>
358

> <S>
-5.700846

> <rmsd_refine>
1.775975

> <E_conf>
98.4608

> <E_score1>
-11.49918

> <E_refine>
-29.19506

> <E_score2>
-5.700846

>  <$File>
outputs/pdb_4j58_cleaned.pdb_2024_06_17__22_47_40_V2_BS398_MIN1_/SDF/sdf_db.sdf

> <Rec_index>
1

>  <PLIF_raw>
[[30,30,30],[823,823,829],[54,54,54],[2,7,7],[0.7,4.692499417,0.6506487965]]

> <FP:PLIF>
6 1 16

>  <PLIF_ligidx>
[30,[30,30],30]

$$$$
358
  MOE2022           3D

 55 57  0  0  0  0  0  0  0  0999 V2000
    5.1870   14.8620   10.0050 C   0  0  0  0  0  0  0  0  0  0  0  0
    4.3870   14.7690   11.1370 C   0  0  0  0  0  0  0  0  0  0  0  0
    3.6360   15.8780   11.5600 C   0  0  0  0  0  0  0  0  0  0  0  0
    5.9550   13.7870    9.6330 O   0  0  0  0  0  0  0  0  0  0  0  0
    3.6750   17.0590   10.7960 C   0  0  0  0  0  0  0  0  0  0  0  0
    2.8490   15.7980   12.7900 C   0  0  0  0  0  0  0  0  0  0  0  0
    2.6250   16.9580   13.4940 N   0  0  0  0  0  0  0  0  0  0  0  0
    2.4000   14.7440   13.2330 O   0  0  0  0  0  0  0  0  0  0  0  0
    5.2180   16.0430    9.2590 C   0  0  0  0  0  0  0  0  0  0  0  0
    1.8140   17.0360   14.7260 C   0  0  0  0  0  0  0  0  0  0  0  0
    2.5940   16.6950   15.9870 C   0  0  0  0  0  0  0  0  0  0  0  0
    1.0280   18.3350   14.8160 C   0  0  0  0  0  0  0  0  0  0  0  0
    3.6260   16.0230   15.9400 O   0  0  0  0  0  0  0  0  0  0  0  0
    0.6500   18.9030   13.7890 O   0  0  0  0  0  0  0  0  0  0  0  0
    0.6690   18.7920   16.0310 N   0  0  0  0  0  0  0  0  0  0  0  0
    5.9880   16.1280    8.1390 O   0  0  0  0  0  0  0  0  0  0  0  0
    2.0640   17.0790   17.1630 N   0  0  0  0  0  0  0  0  0  0  0  0
   -0.4200   19.7830   16.1720 C   0  0  0  0  0  0  0  0  0  0  0  0
    4.4600   17.1420    9.6500 C   0  0  0  0  0  0  0  0  0  0  0  0
    1.2990   18.3210   17.2660 C   0  0  0  0  0  0  0  0  0  0  0  0
   -0.0340   21.2460   15.8920 C   0  0  0  0  0  0  0  0  0  0  0  0
    2.1180   19.3510   17.8700 O   0  0  0  0  0  0  0  0  0  0  0  0
    2.5440   16.4930   18.4290 C   0  0  0  0  0  0  0  0  0  0  0  0
    1.4680   16.2440   19.4980 C   0  0  0  0  0  0  0  0  0  0  0  0
    3.3780   19.7540   17.4710 C   0  0  0  0  0  0  0  0  0  0  0  0
    0.4420   15.3960   19.0240 O   0  0  0  0  0  0  0  0  0  0  0  0
    0.7240   21.8150   16.9390 O   0  0  0  0  0  0  0  0  0  0  0  0
    4.4330   19.6100   18.3700 C   0  0  0  0  0  0  0  0  0  0  0  0
    5.6840   20.0780   17.9950 C   0  0  0  0  0  0  0  0  0  0  0  0
    5.9130   20.6770   16.7610 C   0  0  0  0  0  0  0  0  0  0  0  0
    3.5820   20.3370   16.2160 C   0  0  0  0  0  0  0  0  0  0  0  0
    4.8490   20.8020   15.8680 C   0  0  0  0  0  0  0  0  0  0  0  0
    6.7160   19.9510   18.8650 F   0  0  0  0  0  0  0  0  0  0  0  0
    4.3590   13.8670   11.6900 H   0  0  0  0  0  0  0  0  0  0  0  0
    5.8380   13.0510   10.2680 H   0  0  0  0  0  0  0  0  0  0  0  0
    3.0990   17.9000   11.0860 H   0  0  0  0  0  0  0  0  0  0  0  0
    3.0290   17.8390   13.1420 H   0  0  0  0  0  0  0  0  0  0  0  0
    1.0500   16.2720   14.6640 H   0  0  0  0  0  0  0  0  0  0  0  0
    6.4470   15.2760    7.9940 H   0  0  0  0  0  0  0  0  0  0  0  0
   -1.2200   19.5110   15.4970 H   0  0  0  0  0  0  0  0  0  0  0  0
   -0.8590   19.7130   17.1580 H   0  0  0  0  0  0  0  0  0  0  0  0
    4.4810   18.0330    9.0780 H   0  0  0  0  0  0  0  0  0  0  0  0
    0.4950   18.1380   17.9670 H   0  0  0  0  0  0  0  0  0  0  0  0
    0.5310   21.3140   14.9620 H   0  0  0  0  0  0  0  0  0  0  0  0
   -0.9430   21.8380   15.7750 H   0  0  0  0  0  0  0  0  0  0  0  0
    3.0170   15.5480   18.2210 H   0  0  0  0  0  0  0  0  0  0  0  0
    3.3170   17.1170   18.8520 H   0  0  0  0  0  0  0  0  0  0  0  0
    1.9350   15.7710   20.3630 H   0  0  0  0  0  0  0  0  0  0  0  0
    1.0300   17.1860   19.8270 H   0  0  0  0  0  0  0  0  0  0  0  0
    0.8310   14.7560   18.4170 H   0  0  0  0  0  0  0  0  0  0  0  0
    0.1820   21.8560   17.7300 H   0  0  0  0  0  0  0  0  0  0  0  0
    4.2880   19.1600   19.3170 H   0  0  0  0  0  0  0  0  0  0  0  0
    6.8780   21.0320   16.5070 H   0  0  0  0  0  0  0  0  0  0  0  0
    2.7780   20.4460   15.5380 H   0  0  0  0  0  0  0  0  0  0  0  0
    5.0020   21.2570   14.9230 H   0  0  0  0  0  0  0  0  0  0  0  0
  1  2  1  0  0  0  0
  1  4  1  0  0  0  0
  1  9  2  0  0  0  0
  2  3  2  0  0  0  0
  2 34  1  0  0  0  0
  3  5  1  0  0  0  0
  3  6  1  0  0  0  0
  4 35  1  0  0  0  0
  5 19  2  0  0  0  0
  5 36  1  0  0  0  0
  6  7  1  0  0  0  0
  6  8  2  0  0  0  0
  7 10  1  0  0  0  0
  7 37  1  0  0  0  0
  9 16  1  0  0  0  0
  9 19  1  0  0  0  0
 10 11  1  0  0  0  0
 10 12  1  0  0  0  0
 10 38  1  0  0  0  0
 11 13  2  0  0  0  0
 11 17  1  0  0  0  0
 12 14  2  0  0  0  0
 12 15  1  0  0  0  0
 15 18  1  0  0  0  0
 15 20  1  0  0  0  0
 16 39  1  0  0  0  0
 17 20  1  0  0  0  0
 17 23  1  0  0  0  0
 18 21  1  0  0  0  0
 18 40  1  0  0  0  0
 18 41  1  0  0  0  0
 19 42  1  0  0  0  0
 20 22  1  0  0  0  0
 20 43  1  0  0  0  0
 21 27  1  0  0  0  0
 21 44  1  0  0  0  0
 21 45  1  0  0  0  0
 22 25  1  0  0  0  0
 23 24  1  0  0  0  0
 23 46  1  0  0  0  0
 23 47  1  0  0  0  0
 24 26  1  0  0  0  0
 24 48  1  0  0  0  0
 24 49  1  0  0  0  0
 25 28  2  0  0  0  0
 25 31  1  0  0  0  0
 26 50  1  0  0  0  0
 27 51  1  0  0  0  0
 28 29  1  0  0  0  0
 28 52  1  0  0  0  0
 29 30  2  0  0  0  0
 29 33  1  0  0  0  0
 30 32  1  0  0  0  0
 30 53  1  0  0  0  0
 31 32  2  0  0  0  0
 31 54  1  0  0  0  0
 32 55  1  0  0  0  0
M  END
> <rseq>
1

> <mseq>
359

> <S>
-6.21769

> <rmsd_refine>
1.156368

> <E_conf>
-61.26308

> <E_score1>
-10.84707

> <E_refine>
-35.11309

> <E_score2>
-6.21769

>  <$File>
outputs/pdb_4j58_cleaned.pdb_2024_06_17__22_47_40_V2_BS398_MIN1_/SDF/sdf_db.sdf

> <Rec_index>
1

>  <PLIF_raw>
[[26,13],[1071,954],[71,62],[3,2],[2.1,1.1]]

> <FP:PLIF>
20 7 14

>  <PLIF_ligidx>
[13,26,26]

$$$$
359
  MOE2022           3D

 56 59  0  0  1  0  0  0  0  0999 V2000
    3.5320   17.6770   19.6340 O   0  0  0  0  0  0  0  0  0  0  0  0
    2.6000   17.3120   18.9060 C   0  0  0  0  0  0  0  0  0  0  0  0
    1.4960   16.5080   19.3530 C   0  0  0  0  0  0  0  0  0  0  0  0
    2.6150   17.6850   17.5580 N   0  0  0  0  0  0  0  0  0  0  0  0
    0.5370   16.1390   18.4580 C   0  0  0  0  0  0  0  0  0  0  0  0
    1.6310   17.1990   16.6790 C   0  0  0  0  0  0  0  0  0  0  0  0
    0.6380   16.4890   17.1310 N   0  0  0  0  0  0  0  0  0  0  0  0
    1.7790   17.4710   15.2590 C   0  0  0  0  0  0  0  0  0  0  0  0
    3.6840   18.6090   17.0830 C   0  0  0  0  0  0  0  0  0  0  0  0
    1.4300   16.0930   20.8150 C   0  0  0  0  0  0  0  0  0  0  0  0
   -0.6660   15.2970   18.8340 C   0  0  0  0  0  0  0  0  0  0  0  0
    3.4190   20.1090   17.3140 C   0  0  1  0  0  0  0  0  0  0  0  0
    4.6460   20.8030   17.8280 C   0  0  0  0  0  0  0  0  0  0  0  0
    1.0310   18.4800   14.6360 C   0  0  0  0  0  0  0  0  0  0  0  0
    3.1650   20.8920   16.0140 C   0  0  0  0  0  0  0  0  0  0  0  0
    1.2080   18.7600   13.2860 C   0  0  0  0  0  0  0  0  0  0  0  0
    2.1430   18.0330   12.5430 C   0  0  0  0  0  0  0  0  0  0  0  0
    2.2940   18.3570   11.2170 O   0  0  0  0  0  0  0  0  0  0  0  0
    2.6770   16.7240   14.4750 C   0  0  0  0  0  0  0  0  0  0  0  0
    3.3630   15.6890   15.0380 O   0  0  0  0  0  0  0  0  0  0  0  0
    4.2640   21.8580   15.8340 O   0  0  0  0  0  0  0  0  0  0  0  0
    3.5740   18.4360   10.5340 C   0  0  0  0  0  0  0  0  0  0  0  0
    2.8810   17.0050   13.1280 C   0  0  0  0  0  0  0  0  0  0  0  0
    5.0700   21.7660   16.9360 C   0  0  0  0  0  0  0  0  0  0  0  0
    3.7410   17.3790    9.4290 C   0  0  1  0  0  0  0  0  0  0  0  0
    6.2040   22.5380   17.1690 C   0  0  0  0  0  0  0  0  0  0  0  0
    4.4670   17.9550    8.3100 O   0  0  0  0  0  0  0  0  0  0  0  0
    4.4300   16.1180    9.9220 C   0  0  0  0  0  0  0  0  0  0  0  0
    5.6580   16.1860   10.1620 O   0  0  0  0  0  0  0  0  0  0  0  0
    3.7280   15.1040   10.1200 O   0  5  0  0  0  0  0  0  0  0  0  0
    6.9240   22.3190   18.3420 C   0  0  0  0  0  0  0  0  0  0  0  0
    6.5040   21.3480   19.2560 C   0  0  0  0  0  0  0  0  0  0  0  0
    5.3600   20.5890   19.0030 C   0  0  0  0  0  0  0  0  0  0  0  0
    4.6050   18.3780   17.5890 H   0  0  0  0  0  0  0  0  0  0  0  0
    3.9520   18.4320   16.0520 H   0  0  0  0  0  0  0  0  0  0  0  0
    0.6680   16.6500   21.3410 H   0  0  0  0  0  0  0  0  0  0  0  0
    1.2040   15.0410   20.9110 H   0  0  0  0  0  0  0  0  0  0  0  0
    2.3650   16.2490   21.3350 H   0  0  0  0  0  0  0  0  0  0  0  0
   -1.1150   15.6260   19.7600 H   0  0  0  0  0  0  0  0  0  0  0  0
   -1.4360   15.3410   18.0750 H   0  0  0  0  0  0  0  0  0  0  0  0
   -0.3890   14.2580   18.9490 H   0  0  0  0  0  0  0  0  0  0  0  0
    2.6020   20.2510   18.0210 H   0  0  0  0  0  0  0  0  0  0  0  0
    0.3270   19.0370   15.2010 H   0  0  0  0  0  0  0  0  0  0  0  0
    3.1330   20.2280   15.1500 H   0  0  0  0  0  0  0  0  0  0  0  0
    2.2250   21.4380   16.0900 H   0  0  0  0  0  0  0  0  0  0  0  0
    0.6420   19.5240   12.8200 H   0  0  0  0  0  0  0  0  0  0  0  0
    3.0060   15.4760   15.9240 H   0  0  0  0  0  0  0  0  0  0  0  0
    3.6340   19.4290   10.0880 H   0  0  0  0  0  0  0  0  0  0  0  0
    4.3780   18.3530   11.2620 H   0  0  0  0  0  0  0  0  0  0  0  0
    3.5670   16.4340   12.5580 H   0  0  0  0  0  0  0  0  0  0  0  0
    2.7570   17.1260    9.0580 H   0  0  0  0  0  0  0  0  0  0  0  0
    6.5110   23.2720   16.4690 H   0  0  0  0  0  0  0  0  0  0  0  0
    5.4200   17.9410    8.5070 H   0  0  0  0  0  0  0  0  0  0  0  0
    7.7940   22.8900   18.5420 H   0  0  0  0  0  0  0  0  0  0  0  0
    7.0610   21.1850   20.1430 H   0  0  0  0  0  0  0  0  0  0  0  0
    5.0440   19.8530   19.6960 H   0  0  0  0  0  0  0  0  0  0  0  0
  1  2  2  0  0  0  0
  2  3  1  0  0  0  0
  2  4  1  0  0  0  0
  3  5  2  0  0  0  0
  3 10  1  0  0  0  0
  4  6  1  0  0  0  0
  4  9  1  0  0  0  0
  5  7  1  0  0  0  0
  5 11  1  0  0  0  0
  6  7  2  0  0  0  0
  6  8  1  0  0  0  0
  8 14  1  0  0  0  0
  8 19  2  0  0  0  0
  9 12  1  0  0  0  0
  9 34  1  0  0  0  0
  9 35  1  0  0  0  0
 10 36  1  0  0  0  0
 10 37  1  0  0  0  0
 10 38  1  0  0  0  0
 11 39  1  0  0  0  0
 11 40  1  0  0  0  0
 11 41  1  0  0  0  0
 12 13  1  0  0  0  0
 12 15  1  0  0  0  0
 12 42  1  0  0  0  0
 13 24  2  0  0  0  0
 13 33  1  0  0  0  0
 14 16  2  0  0  0  0
 14 43  1  0  0  0  0
 15 21  1  0  0  0  0
 15 44  1  0  0  0  0
 15 45  1  0  0  0  0
 16 17  1  0  0  0  0
 16 46  1  0  0  0  0
 17 18  1  0  0  0  0
 17 23  2  0  0  0  0
 18 22  1  0  0  0  0
 19 20  1  0  0  0  0
 19 23  1  0  0  0  0
 20 47  1  0  0  0  0
 21 24  1  0  0  0  0
 22 25  1  0  0  0  0
 22 48  1  0  0  0  0
 22 49  1  0  0  0  0
 23 50  1  0  0  0  0
 24 26  1  0  0  0  0
 25 27  1  0  0  0  0
 25 28  1  0  0  0  0
 25 51  1  0  0  0  0
 26 31  2  0  0  0  0
 26 52  1  0  0  0  0
 27 53  1  0  0  0  0
 28 29  2  0  0  0  0
 28 30  1  0  0  0  0
 31 32  1  0  0  0  0
 31 54  1  0  0  0  0
 32 33  2  0  0  0  0
 32 55  1  0  0  0  0
 33 56  1  0  0  0  0
M  CHG  1  30  -1
M  END
> <rseq>
1

> <mseq>
360

> <S>
-6.36561

> <rmsd_refine>
0.7920998

> <E_conf>
-51.62846

> <E_score1>
-13.74544

> <E_refine>
-36.95514

> <E_score2>
-6.36561

>  <$File>
outputs/pdb_4j58_cleaned.pdb_2024_06_17__22_47_40_V2_BS398_MIN1_/SDF/sdf_db.sdf

> <Rec_index>
1

>  <PLIF_raw>
[[27,29,29,29,2,4,6,7,5,3],[2222,823,823,829,954,954,954,954,954,954],[148,54,54,54,62,62,62,62,62,62],[3,2,7,7,10,10,10,10,10,10],[1,4,5.320313806,0.835327983,0.5,0.5,0.5,0.5,0.5,0.5]]

> <FP:PLIF>
6 19 1 16 21 39

>  <PLIF_ligidx>
[29,29,[29,29],29,[2,4,6,7,5,3],27]

$$$$
360
  MOE2022           3D

 67 69  0  0  1  0  0  0  0  0999 V2000
    2.2580   16.6260   19.1300 O   0  0  0  0  0  0  0  0  0  0  0  0
    1.3620   16.8110   18.3070 C   0  0  0  0  0  0  0  0  0  0  0  0
    1.5970   17.6470   17.2450 N   0  0  0  0  0  0  0  0  0  0  0  0
    0.0530   16.1570   18.3830 C   0  0  0  0  0  0  0  0  0  0  0  0
   -1.0670   16.6820   17.7180 C   0  0  0  0  0  0  0  0  0  0  0  0
   -2.2920   16.0270   17.7690 C   0  0  0  0  0  0  0  0  0  0  0  0
   -0.0960   14.9680   19.1100 C   0  0  0  0  0  0  0  0  0  0  0  0
    2.9310   18.0130   16.7790 C   0  0  1  0  0  0  0  0  0  0  0  0
   -1.3210   14.3120   19.1510 C   0  0  0  0  0  0  0  0  0  0  0  0
   -2.4200   14.8400   18.4820 C   0  0  0  0  0  0  0  0  0  0  0  0
    3.0130   17.9370   15.2520 C   0  0  0  0  0  0  0  0  0  0  0  0
    2.6930   16.7470   14.5790 C   0  0  0  0  0  0  0  0  0  0  0  0
    2.3640   15.6190   15.2710 O   0  0  0  0  0  0  0  0  0  0  0  0
    2.7130   16.6580   13.1940 C   0  0  0  0  0  0  0  0  0  0  0  0
    3.0830   17.7740   12.4580 C   0  0  0  0  0  0  0  0  0  0  0  0
    3.3510   19.3700   17.3740 C   0  0  0  0  0  0  0  0  0  0  0  0
    3.0960   17.6330   11.0880 O   0  0  0  0  0  0  0  0  0  0  0  0
    3.4390   18.9660   13.0960 C   0  0  0  0  0  0  0  0  0  0  0  0
    4.4650   20.0660   16.5750 C   0  0  1  0  0  0  0  0  0  0  0  0
    3.4240   19.0410   14.4920 C   0  0  0  0  0  0  0  0  0  0  0  0
    3.7850   18.5110   10.1680 C   0  0  0  0  0  0  0  0  0  0  0  0
    3.8700   20.3210   15.1760 C   0  0  0  0  0  0  0  0  0  0  0  0
    4.0460   17.8580    8.8250 C   0  0  0  0  0  0  0  0  0  0  0  0
    4.9510   21.3830   17.2290 C   0  0  0  0  0  0  0  0  0  0  0  0
    3.5130   18.2770    7.8070 O   0  0  0  0  0  0  0  0  0  0  0  0
    4.8930   16.7760    8.7580 N   0  0  0  0  0  0  0  0  0  0  0  0
    5.4990   16.2630    9.9150 O   0  0  0  0  0  0  0  0  0  0  0  0
    6.1750   21.3080   18.1850 C   0  0  0  0  0  0  0  0  0  0  0  0
    6.3760   22.7090   18.7940 C   0  0  0  0  0  0  0  0  0  0  0  0
    7.4690   20.9510   17.4240 C   0  0  0  0  0  0  0  0  0  0  0  0
    5.2400   16.0710    7.5240 C   0  0  0  0  0  0  0  0  0  0  0  0
    4.6010   14.6810    7.4190 C   0  0  0  0  0  0  0  0  0  0  0  0
    5.9830   20.3040   19.3370 C   0  0  0  0  0  0  0  0  0  0  0  0
    0.8380   17.7800   16.5610 H   0  0  0  0  0  0  0  0  0  0  0  0
   -0.9910   17.5850   17.1710 H   0  0  0  0  0  0  0  0  0  0  0  0
   -3.1300   16.4330   17.2630 H   0  0  0  0  0  0  0  0  0  0  0  0
    0.7360   14.5550   19.6180 H   0  0  0  0  0  0  0  0  0  0  0  0
    3.6290   17.2760   17.1420 H   0  0  0  0  0  0  0  0  0  0  0  0
   -1.4230   13.4030   19.6850 H   0  0  0  0  0  0  0  0  0  0  0  0
   -3.3520   14.3390   18.5150 H   0  0  0  0  0  0  0  0  0  0  0  0
    2.1430   14.8890   14.6600 H   0  0  0  0  0  0  0  0  0  0  0  0
    2.4580   15.7530   12.7040 H   0  0  0  0  0  0  0  0  0  0  0  0
    2.4790   20.0270   17.4060 H   0  0  0  0  0  0  0  0  0  0  0  0
    3.6680   19.1960   18.4000 H   0  0  0  0  0  0  0  0  0  0  0  0
    3.7260   19.8110   12.5270 H   0  0  0  0  0  0  0  0  0  0  0  0
    5.3030   19.3810   16.4710 H   0  0  0  0  0  0  0  0  0  0  0  0
    3.2050   19.4160   10.0450 H   0  0  0  0  0  0  0  0  0  0  0  0
    4.7280   18.7910   10.6090 H   0  0  0  0  0  0  0  0  0  0  0  0
    3.0140   20.9930   15.2550 H   0  0  0  0  0  0  0  0  0  0  0  0
    4.6250   20.8050   14.5560 H   0  0  0  0  0  0  0  0  0  0  0  0
    5.2100   22.0850   16.4350 H   0  0  0  0  0  0  0  0  0  0  0  0
    4.1080   21.8260   17.7650 H   0  0  0  0  0  0  0  0  0  0  0  0
    5.7850   15.3540    9.6930 H   0  0  0  0  0  0  0  0  0  0  0  0
    7.2140   22.7050   19.4930 H   0  0  0  0  0  0  0  0  0  0  0  0
    6.5820   23.4360   18.0070 H   0  0  0  0  0  0  0  0  0  0  0  0
    5.4750   23.0170   19.3230 H   0  0  0  0  0  0  0  0  0  0  0  0
    8.3270   20.9990   18.0960 H   0  0  0  0  0  0  0  0  0  0  0  0
    7.4140   19.9420   17.0210 H   0  0  0  0  0  0  0  0  0  0  0  0
    7.6300   21.6500   16.6030 H   0  0  0  0  0  0  0  0  0  0  0  0
    4.9540   16.6570    6.6610 H   0  0  0  0  0  0  0  0  0  0  0  0
    6.3150   15.9860    7.4640 H   0  0  0  0  0  0  0  0  0  0  0  0
    4.9380   14.0360    8.2310 H   0  0  0  0  0  0  0  0  0  0  0  0
    3.5140   14.7590    7.4660 H   0  0  0  0  0  0  0  0  0  0  0  0
    4.8710   14.2130    6.4730 H   0  0  0  0  0  0  0  0  0  0  0  0
    5.0600   20.5240   19.8740 H   0  0  0  0  0  0  0  0  0  0  0  0
    5.9350   19.2880   18.9480 H   0  0  0  0  0  0  0  0  0  0  0  0
    6.8200   20.3620   20.0330 H   0  0  0  0  0  0  0  0  0  0  0  0
  1  2  2  0  0  0  0
  2  3  1  0  0  0  0
  2  4  1  0  0  0  0
  3  8  1  0  0  0  0
  3 34  1  0  0  0  0
  4  5  2  0  0  0  0
  4  7  1  0  0  0  0
  5  6  1  0  0  0  0
  5 35  1  0  0  0  0
  6 10  2  0  0  0  0
  6 36  1  0  0  0  0
  7  9  2  0  0  0  0
  7 37  1  0  0  0  0
  8 11  1  0  0  0  0
  8 16  1  0  0  0  0
  8 38  1  0  0  0  0
  9 10  1  0  0  0  0
  9 39  1  0  0  0  0
 10 40  1  0  0  0  0
 11 12  1  0  0  0  0
 11 20  2  0  0  0  0
 12 13  1  0  0  0  0
 12 14  2  0  0  0  0
 13 41  1  0  0  0  0
 14 15  1  0  0  0  0
 14 42  1  0  0  0  0
 15 17  1  0  0  0  0
 15 18  2  0  0  0  0
 16 19  1  0  0  0  0
 16 43  1  0  0  0  0
 16 44  1  0  0  0  0
 17 21  1  0  0  0  0
 18 20  1  0  0  0  0
 18 45  1  0  0  0  0
 19 22  1  0  0  0  0
 19 24  1  0  0  0  0
 19 46  1  0  0  0  0
 20 22  1  0  0  0  0
 21 23  1  0  0  0  0
 21 47  1  0  0  0  0
 21 48  1  0  0  0  0
 22 49  1  0  0  0  0
 22 50  1  0  0  0  0
 23 25  2  0  0  0  0
 23 26  1  0  0  0  0
 24 28  1  0  0  0  0
 24 51  1  0  0  0  0
 24 52  1  0  0  0  0
 26 27  1  0  0  0  0
 26 31  1  0  0  0  0
 27 53  1  0  0  0  0
 28 29  1  0  0  0  0
 28 30  1  0  0  0  0
 28 33  1  0  0  0  0
 29 54  1  0  0  0  0
 29 55  1  0  0  0  0
 29 56  1  0  0  0  0
 30 57  1  0  0  0  0
 30 58  1  0  0  0  0
 30 59  1  0  0  0  0
 31 32  1  0  0  0  0
 31 60  1  0  0  0  0
 31 61  1  0  0  0  0
 32 62  1  0  0  0  0
 32 63  1  0  0  0  0
 32 64  1  0  0  0  0
 33 65  1  0  0  0  0
 33 66  1  0  0  0  0
 33 67  1  0  0  0  0
M  END
> <rseq>
1

> <mseq>
361

> <S>
-6.833535

> <rmsd_refine>
1.924021

> <E_conf>
-21.82287

> <E_score1>
-12.12981

> <E_refine>
-36.7113

> <E_score2>
-6.833535

>  <$File>
outputs/pdb_4j58_cleaned.pdb_2024_06_17__22_47_40_V2_BS398_MIN1_/SDF/sdf_db.sdf

> <Rec_index>
1

>  <PLIF_raw>
[[],[],[],[],[]]

>  <PLIF_ligidx>
[]

$$$$
361
  MOE2022           3D

 61 64  0  0  1  0  0  0  0  0999 V2000
    2.5250   17.1730   19.6840 O   0  0  0  0  0  0  0  0  0  0  0  0
    1.6840   17.4110   18.8170 C   0  0  0  0  0  0  0  0  0  0  0  0
    1.9210   18.4340   17.9300 N   0  0  0  0  0  0  0  0  0  0  0  0
    0.4750   16.6010   18.6240 C   0  0  0  0  0  0  0  0  0  0  0  0
   -0.5470   17.0000   17.7450 C   0  0  0  0  0  0  0  0  0  0  0  0
   -1.6540   16.1880   17.5290 C   0  0  0  0  0  0  0  0  0  0  0  0
    0.3450   15.3700   19.2830 C   0  0  0  0  0  0  0  0  0  0  0  0
    3.2350   18.6440   17.3170 C   0  0  1  0  0  0  0  0  0  0  0  0
   -0.7590   14.5560   19.0540 C   0  0  0  0  0  0  0  0  0  0  0  0
   -1.7590   14.9640   18.1790 C   0  0  0  0  0  0  0  0  0  0  0  0
    3.2750   17.9420   15.9460 C   0  0  0  0  0  0  0  0  0  0  0  0
    3.1380   16.5520   15.8550 C   0  0  0  0  0  0  0  0  0  0  0  0
    3.1720   15.7890   16.9750 O   0  0  0  0  0  0  0  0  0  0  0  0
    2.9980   15.9000   14.6380 C   0  0  0  0  0  0  0  0  0  0  0  0
    3.0770   16.6450   13.4720 C   0  0  0  0  0  0  0  0  0  0  0  0
    3.5560   20.1520   17.2620 C   0  0  0  0  0  0  0  0  0  0  0  0
    2.9450   15.9460   12.2950 O   0  0  0  0  0  0  0  0  0  0  0  0
    3.3030   18.0230   13.5170 C   0  0  0  0  0  0  0  0  0  0  0  0
    4.4840   20.5100   16.0930 C   0  0  1  0  0  0  0  0  0  0  0  0
    3.4200   18.6660   14.7540 C   0  0  0  0  0  0  0  0  0  0  0  0
    3.4300   16.3140   10.9870 C   0  0  1  0  0  0  0  0  0  0  0  0
    3.7330   20.1470   14.8040 C   0  0  0  0  0  0  0  0  0  0  0  0
    4.0580   15.0650   10.3450 C   0  0  0  0  0  0  0  0  0  0  0  0
    4.9670   21.9620   16.0740 C   0  0  0  0  0  0  0  0  0  0  0  0
    4.2310   22.8420   16.5700 O   0  0  0  0  0  0  0  0  0  0  0  0
    2.2620   16.8700   10.1550 C   0  0  0  0  0  0  0  0  0  0  0  0
    5.1640   15.3340    9.3150 C   0  0  1  0  0  0  0  0  0  0  0  0
    6.0820   22.1590   15.5390 O   0  5  0  0  0  0  0  0  0  0  0  0
    4.9200   16.4950    8.3390 C   0  0  0  0  0  0  0  0  0  0  0  0
    3.4700   16.6550    7.8600 C   0  0  2  0  0  0  0  0  0  0  0  0
    6.3720   15.5780   10.0070 O   0  0  0  0  0  0  0  0  0  0  0  0
    3.4860   17.2960    6.6010 O   0  0  0  0  0  0  0  0  0  0  0  0
    2.6360   17.5250    8.8170 C   0  0  0  0  0  0  0  0  0  0  0  0
    1.1440   18.6970   17.3090 H   0  0  0  0  0  0  0  0  0  0  0  0
   -0.4880   17.9250   17.2340 H   0  0  0  0  0  0  0  0  0  0  0  0
   -2.4170   16.5000   16.8640 H   0  0  0  0  0  0  0  0  0  0  0  0
    1.1050   15.0440   19.9460 H   0  0  0  0  0  0  0  0  0  0  0  0
    3.9950   18.1910   17.9360 H   0  0  0  0  0  0  0  0  0  0  0  0
   -0.8410   13.6170   19.5350 H   0  0  0  0  0  0  0  0  0  0  0  0
   -2.6000   14.3420   18.0070 H   0  0  0  0  0  0  0  0  0  0  0  0
    2.8370   14.8840   16.8090 H   0  0  0  0  0  0  0  0  0  0  0  0
    2.8510   14.8530   14.5930 H   0  0  0  0  0  0  0  0  0  0  0  0
    2.6280   20.7180   17.1580 H   0  0  0  0  0  0  0  0  0  0  0  0
    4.0210   20.4440   18.2050 H   0  0  0  0  0  0  0  0  0  0  0  0
    3.3890   18.5800   12.6210 H   0  0  0  0  0  0  0  0  0  0  0  0
    5.3700   19.8820   16.1800 H   0  0  0  0  0  0  0  0  0  0  0  0
    4.1940   17.0780   11.1230 H   0  0  0  0  0  0  0  0  0  0  0  0
    2.8050   20.7170   14.7420 H   0  0  0  0  0  0  0  0  0  0  0  0
    4.3540   20.4130   13.9470 H   0  0  0  0  0  0  0  0  0  0  0  0
    4.4830   14.4430   11.1360 H   0  0  0  0  0  0  0  0  0  0  0  0
    3.2730   14.4700    9.8770 H   0  0  0  0  0  0  0  0  0  0  0  0
    1.5490   16.0660    9.9660 H   0  0  0  0  0  0  0  0  0  0  0  0
    1.7460   17.6220   10.7550 H   0  0  0  0  0  0  0  0  0  0  0  0
    5.2920   14.4230    8.7290 H   0  0  0  0  0  0  0  0  0  0  0  0
    5.2220   17.4270    8.8100 H   0  0  0  0  0  0  0  0  0  0  0  0
    5.5710   16.3370    7.4780 H   0  0  0  0  0  0  0  0  0  0  0  0
    3.0010   15.6770    7.7390 H   0  0  0  0  0  0  0  0  0  0  0  0
    6.6200   14.7780   10.4770 H   0  0  0  0  0  0  0  0  0  0  0  0
    3.9240   16.7240    5.9680 H   0  0  0  0  0  0  0  0  0  0  0  0
    1.7050   17.7940    8.3150 H   0  0  0  0  0  0  0  0  0  0  0  0
    3.1740   18.4520    9.0190 H   0  0  0  0  0  0  0  0  0  0  0  0
  1  2  2  0  0  0  0
  2  3  1  0  0  0  0
  2  4  1  0  0  0  0
  3  8  1  0  0  0  0
  3 34  1  0  0  0  0
  4  5  2  0  0  0  0
  4  7  1  0  0  0  0
  5  6  1  0  0  0  0
  5 35  1  0  0  0  0
  6 10  2  0  0  0  0
  6 36  1  0  0  0  0
  7  9  2  0  0  0  0
  7 37  1  0  0  0  0
  8 11  1  0  0  0  0
  8 16  1  0  0  0  0
  8 38  1  0  0  0  0
  9 10  1  0  0  0  0
  9 39  1  0  0  0  0
 10 40  1  0  0  0  0
 11 12  1  0  0  0  0
 11 20  2  0  0  0  0
 12 13  1  0  0  0  0
 12 14  2  0  0  0  0
 13 41  1  0  0  0  0
 14 15  1  0  0  0  0
 14 42  1  0  0  0  0
 15 17  1  0  0  0  0
 15 18  2  0  0  0  0
 16 19  1  0  0  0  0
 16 43  1  0  0  0  0
 16 44  1  0  0  0  0
 17 21  1  0  0  0  0
 18 20  1  0  0  0  0
 18 45  1  0  0  0  0
 19 22  1  0  0  0  0
 19 24  1  0  0  0  0
 19 46  1  0  0  0  0
 20 22  1  0  0  0  0
 21 23  1  0  0  0  0
 21 26  1  0  0  0  0
 21 47  1  0  0  0  0
 22 48  1  0  0  0  0
 22 49  1  0  0  0  0
 23 27  1  0  0  0  0
 23 50  1  0  0  0  0
 23 51  1  0  0  0  0
 24 25  2  0  0  0  0
 24 28  1  0  0  0  0
 26 33  1  0  0  0  0
 26 52  1  0  0  0  0
 26 53  1  0  0  0  0
 27 29  1  0  0  0  0
 27 31  1  0  0  0  0
 27 54  1  0  0  0  0
 29 30  1  0  0  0  0
 29 55  1  0  0  0  0
 29 56  1  0  0  0  0
 30 32  1  0  0  0  0
 30 33  1  0  0  0  0
 30 57  1  0  0  0  0
 31 58  1  0  0  0  0
 32 59  1  0  0  0  0
 33 60  1  0  0  0  0
 33 61  1  0  0  0  0
M  CHG  1  28  -1
M  END
> <rseq>
1

> <mseq>
362

> <S>
-6.142986

> <rmsd_refine>
1.853534

> <E_conf>
-159.2517

> <E_score1>
-11.71527

> <E_refine>
-36.40772

> <E_score2>
-6.142986

>  <$File>
outputs/pdb_4j58_cleaned.pdb_2024_06_17__22_47_40_V2_BS398_MIN1_/SDF/sdf_db.sdf

> <Rec_index>
1

>  <PLIF_raw>
[[13,28,31,28,4,7,9,10,6,5],[1071,826,823,826,1074,1074,1074,1074,1074,1074],[71,54,54,54,72,72,72,72,72,72],[3,2,2,7,10,10,10,10,10,10],[2.4,0.7,1.9,1.546495037,0.5,0.5,0.5,0.5,0.5,0.5]]

> <FP:PLIF>
6 19 1 7 14 48

>  <PLIF_ligidx>
[[28,31],31,28,13,13,[4,7,9,10,6,5]]

$$$$
362
  MOE2022           3D

 55 58  0  0  1  0  0  0  0  0999 V2000
    3.3290   17.3710   19.5110 O   0  0  0  0  0  0  0  0  0  0  0  0
    2.3110   17.0280   18.9010 C   0  0  0  0  0  0  0  0  0  0  0  0
    1.1710   16.4010   19.5140 C   0  0  0  0  0  0  0  0  0  0  0  0
    2.2470   17.2360   17.5200 N   0  0  0  0  0  0  0  0  0  0  0  0
    0.1390   15.9780   18.7290 C   0  0  0  0  0  0  0  0  0  0  0  0
    1.2650   16.5660   16.7700 C   0  0  0  0  0  0  0  0  0  0  0  0
    0.2270   16.0450   17.3570 N   0  0  0  0  0  0  0  0  0  0  0  0
    1.4920   16.3870   15.3430 C   0  0  0  0  0  0  0  0  0  0  0  0
    3.2070   18.1570   16.8300 C   0  0  0  0  0  0  0  0  0  0  0  0
    1.1540   16.2110   21.0220 C   0  0  0  0  0  0  0  0  0  0  0  0
   -1.1180   15.3320   19.2760 C   0  0  0  0  0  0  0  0  0  0  0  0
    3.3200   19.5940   17.3930 C   0  0  1  0  0  0  0  0  0  0  0  0
    4.5970   19.8460   18.2270 C   0  0  0  0  0  0  0  0  0  0  0  0
    0.6090   16.8830   14.3730 C   0  0  0  0  0  0  0  0  0  0  0  0
    3.4400   20.6670   16.3130 C   0  0  0  0  0  0  0  0  0  0  0  0
    0.8630   16.6790   13.0200 C   0  0  0  0  0  0  0  0  0  0  0  0
    1.9980   15.9650   12.6320 C   0  0  0  0  0  0  0  0  0  0  0  0
    2.8630   20.6380   15.2290 O   0  0  0  0  0  0  0  0  0  0  0  0
    2.6220   15.6670   14.9310 C   0  0  0  0  0  0  0  0  0  0  0  0
    4.7930   21.3570   18.0460 C   0  0  1  0  0  0  0  0  0  0  0  0
    2.8700   15.4400   13.5890 C   0  0  0  0  0  0  0  0  0  0  0  0
    6.2410   21.8150   18.2840 C   0  0  0  0  0  0  0  0  0  0  0  0
    6.4600   22.4450   19.3430 O   0  0  0  0  0  0  0  0  0  0  0  0
    7.0970   21.5290   17.4150 O   0  5  0  0  0  0  0  0  0  0  0  0
    4.3090   21.5910   16.6960 N   0  0  0  0  0  0  0  0  0  0  0  0
    2.2420   15.8060   11.2790 O   0  0  0  0  0  0  0  0  0  0  0  0
    3.4150   15.2460   10.7970 C   0  0  0  0  0  0  0  0  0  0  0  0
    4.4440   16.0710   10.3360 C   0  0  0  0  0  0  0  0  0  0  0  0
    4.2920   17.4320   10.3400 O   0  0  0  0  0  0  0  0  0  0  0  0
    5.6390   15.5190    9.8830 C   0  0  0  0  0  0  0  0  0  0  0  0
    5.8000   14.1350    9.8970 C   0  0  0  0  0  0  0  0  0  0  0  0
    4.7690   13.3090   10.3490 C   0  0  0  0  0  0  0  0  0  0  0  0
    3.5690   13.8610   10.7960 C   0  0  0  0  0  0  0  0  0  0  0  0
    4.1850   17.7100   16.7630 H   0  0  0  0  0  0  0  0  0  0  0  0
    2.9290   18.2610   15.7930 H   0  0  0  0  0  0  0  0  0  0  0  0
    0.4230   16.8560   21.4890 H   0  0  0  0  0  0  0  0  0  0  0  0
    0.9090   15.1910   21.2750 H   0  0  0  0  0  0  0  0  0  0  0  0
    2.1130   16.4110   21.4770 H   0  0  0  0  0  0  0  0  0  0  0  0
   -1.4220   15.7580   20.2210 H   0  0  0  0  0  0  0  0  0  0  0  0
   -1.9500   15.4550   18.5950 H   0  0  0  0  0  0  0  0  0  0  0  0
   -0.9750   14.2700   19.4180 H   0  0  0  0  0  0  0  0  0  0  0  0
    2.4320   19.8180   17.9850 H   0  0  0  0  0  0  0  0  0  0  0  0
    4.4830   19.5890   19.2780 H   0  0  0  0  0  0  0  0  0  0  0  0
    5.4450   19.3170   17.7920 H   0  0  0  0  0  0  0  0  0  0  0  0
   -0.2540   17.4200   14.6730 H   0  0  0  0  0  0  0  0  0  0  0  0
    0.2010   17.0630   12.2880 H   0  0  0  0  0  0  0  0  0  0  0  0
    3.2920   15.2890   15.6590 H   0  0  0  0  0  0  0  0  0  0  0  0
    4.1380   21.8840   18.7420 H   0  0  0  0  0  0  0  0  0  0  0  0
    3.7120   14.8690   13.3060 H   0  0  0  0  0  0  0  0  0  0  0  0
    4.5990   22.3790   16.1360 H   0  0  0  0  0  0  0  0  0  0  0  0
    3.3950   17.6670   10.6500 H   0  0  0  0  0  0  0  0  0  0  0  0
    6.4180   16.1440    9.5310 H   0  0  0  0  0  0  0  0  0  0  0  0
    6.7080   13.7060    9.5620 H   0  0  0  0  0  0  0  0  0  0  0  0
    4.9010   12.2580   10.3560 H   0  0  0  0  0  0  0  0  0  0  0  0
    2.7880   13.2350   11.1430 H   0  0  0  0  0  0  0  0  0  0  0  0
  1  2  2  0  0  0  0
  2  3  1  0  0  0  0
  2  4  1  0  0  0  0
  3  5  2  0  0  0  0
  3 10  1  0  0  0  0
  4  6  1  0  0  0  0
  4  9  1  0  0  0  0
  5  7  1  0  0  0  0
  5 11  1  0  0  0  0
  6  7  2  0  0  0  0
  6  8  1  0  0  0  0
  8 14  1  0  0  0  0
  8 19  2  0  0  0  0
  9 12  1  0  0  0  0
  9 34  1  0  0  0  0
  9 35  1  0  0  0  0
 10 36  1  0  0  0  0
 10 37  1  0  0  0  0
 10 38  1  0  0  0  0
 11 39  1  0  0  0  0
 11 40  1  0  0  0  0
 11 41  1  0  0  0  0
 12 13  1  0  0  0  0
 12 15  1  0  0  0  0
 12 42  1  0  0  0  0
 13 20  1  0  0  0  0
 13 43  1  0  0  0  0
 13 44  1  0  0  0  0
 14 16  2  0  0  0  0
 14 45  1  0  0  0  0
 15 18  2  0  0  0  0
 15 25  1  0  0  0  0
 16 17  1  0  0  0  0
 16 46  1  0  0  0  0
 17 21  2  0  0  0  0
 17 26  1  0  0  0  0
 19 21  1  0  0  0  0
 19 47  1  0  0  0  0
 20 22  1  0  0  0  0
 20 25  1  0  0  0  0
 20 48  1  0  0  0  0
 21 49  1  0  0  0  0
 22 23  2  0  0  0  0
 22 24  1  0  0  0  0
 25 50  1  0  0  0  0
 26 27  1  0  0  0  0
 27 28  2  0  0  0  0
 27 33  1  0  0  0  0
 28 29  1  0  0  0  0
 28 30  1  0  0  0  0
 29 51  1  0  0  0  0
 30 31  2  0  0  0  0
 30 52  1  0  0  0  0
 31 32  1  0  0  0  0
 31 53  1  0  0  0  0
 32 33  2  0  0  0  0
 32 54  1  0  0  0  0
 33 55  1  0  0  0  0
M  CHG  1  24  -1
M  END
> <rseq>
1

> <mseq>
363

> <S>
-6.670291

> <rmsd_refine>
1.450747

> <E_conf>
-54.25887

> <E_score1>
-10.17356

> <E_refine>
-35.32136

> <E_score2>
-6.670291

>  <$File>
outputs/pdb_4j58_cleaned.pdb_2024_06_17__22_47_40_V2_BS398_MIN1_/SDF/sdf_db.sdf

> <Rec_index>
1

>  <PLIF_raw>
[[23,2,4,6,7,5,3,2,4,6,7,5,3],[1872,954,954,954,954,954,954,1519,1519,1519,1519,1519,1519],[125,62,62,62,62,62,62,102,102,102,102,102,102],[7,10,10,10,10,10,10,10,10,10,10,10,10],[3.261119925,1.7,1.7,1.7,1.7,1.7,1.7,0.5,0.5,0.5,0.5,0.5,0.5]]

> <FP:PLIF>
21 30 22 13

>  <PLIF_ligidx>
[[2,4,6,7,5,3],[2,4,6,7,5,3],[2,4,6,7,5,3],23]

$$$$
363
  MOE2022           3D

 58 61  0  0  1  0  0  0  0  0999 V2000
    3.7100   18.3040   18.1240 O   0  0  0  0  0  0  0  0  0  0  0  0
    2.7550   17.7050   17.6320 C   0  0  0  0  0  0  0  0  0  0  0  0
    1.7900   16.9700   18.4310 C   0  0  0  0  0  0  0  0  0  0  0  0
    2.5910   17.7460   16.2450 N   0  0  0  0  0  0  0  0  0  0  0  0
    0.6920   16.3460   17.8160 C   0  0  0  0  0  0  0  0  0  0  0  0
    1.5590   16.9990   15.5960 C   0  0  0  0  0  0  0  0  0  0  0  0
   -0.3090   15.7030   18.5620 C   0  0  0  0  0  0  0  0  0  0  0  0
    0.6150   16.3740   16.4190 N   0  0  0  0  0  0  0  0  0  0  0  0
    1.4890   16.8960   14.2410 C   0  0  0  0  0  0  0  0  0  0  0  0
    1.9160   16.8850   19.8250 C   0  0  0  0  0  0  0  0  0  0  0  0
    2.4330   17.5860   13.4090 C   0  0  0  0  0  0  0  0  0  0  0  0
   -1.5100   15.0430   17.8940 C   0  0  0  0  0  0  0  0  0  0  0  0
    3.5320   18.5660   15.4220 C   0  0  2  0  0  0  0  0  0  0  0  0
    3.4590   19.9830   15.7440 O   0  0  0  0  0  0  0  0  0  0  0  0
    2.3060   17.3810   12.0470 O   0  0  0  0  0  0  0  0  0  0  0  0
    3.3860   18.3920   13.9220 C   0  0  0  0  0  0  0  0  0  0  0  0
    3.0710   18.0540   11.0150 C   0  0  0  0  0  0  0  0  0  0  0  0
    2.1550   20.6290   15.7220 C   0  0  0  0  0  0  0  0  0  0  0  0
    2.2500   22.0060   15.0560 C   0  0  0  0  0  0  0  0  0  0  0  0
    2.8100   17.4580    9.6310 C   0  0  0  0  0  0  0  0  0  0  0  0
    2.3130   23.0110   16.2060 C   0  0  1  0  0  0  0  0  0  0  0  0
    3.4970   16.1950    9.4520 O   0  0  0  0  0  0  0  0  0  0  0  0
    4.7540   16.2230    8.7040 C   0  0  0  0  0  0  0  0  0  0  0  0
    1.3740   22.3800   17.2400 C   0  0  1  0  0  0  0  0  0  0  0  0
    5.8020   15.3000    9.2870 C   0  0  0  0  0  0  0  0  0  0  0  0
    3.6450   23.1140   16.6760 O   0  0  0  0  0  0  0  0  0  0  0  0
    6.5240   15.7640   10.1970 O   0  5  0  0  0  0  0  0  0  0  0  0
    1.6620   20.8810   17.1540 C   0  0  0  0  0  0  0  0  0  0  0  0
    5.9090   14.1490    8.8100 O   0  0  0  0  0  0  0  0  0  0  0  0
   -0.1770   15.7090   19.9520 C   0  0  0  0  0  0  0  0  0  0  0  0
   -1.1530   15.1780   20.7370 O   0  0  0  0  0  0  0  0  0  0  0  0
    0.9360   16.2670   20.5870 C   0  0  0  0  0  0  0  0  0  0  0  0
    1.5700   22.9010   18.5430 O   0  0  0  0  0  0  0  0  0  0  0  0
   -0.1580   15.8640   15.9660 H   0  0  0  0  0  0  0  0  0  0  0  0
    0.7360   16.3120   13.7790 H   0  0  0  0  0  0  0  0  0  0  0  0
    2.7590   17.3100   20.3060 H   0  0  0  0  0  0  0  0  0  0  0  0
   -2.3360   15.7520   17.8300 H   0  0  0  0  0  0  0  0  0  0  0  0
   -1.2770   14.6940   16.8890 H   0  0  0  0  0  0  0  0  0  0  0  0
   -1.8430   14.1690   18.4540 H   0  0  0  0  0  0  0  0  0  0  0  0
    4.5390   18.2610   15.6750 H   0  0  0  0  0  0  0  0  0  0  0  0
    4.0600   18.9320   13.3140 H   0  0  0  0  0  0  0  0  0  0  0  0
    2.7840   19.1060   11.0090 H   0  0  0  0  0  0  0  0  0  0  0  0
    4.1350   17.9720   11.2360 H   0  0  0  0  0  0  0  0  0  0  0  0
    1.4580   19.9970   15.1700 H   0  0  0  0  0  0  0  0  0  0  0  0
    3.1230   22.0810   14.4050 H   0  0  0  0  0  0  0  0  0  0  0  0
    1.3440   22.1850   14.4760 H   0  0  0  0  0  0  0  0  0  0  0  0
    1.7390   17.2890    9.5100 H   0  0  0  0  0  0  0  0  0  0  0  0
    3.1410   18.1580    8.8630 H   0  0  0  0  0  0  0  0  0  0  0  0
    1.9480   23.9900   15.8920 H   0  0  0  0  0  0  0  0  0  0  0  0
    4.5340   15.9470    7.6830 H   0  0  0  0  0  0  0  0  0  0  0  0
    5.1320   17.2360    8.7040 H   0  0  0  0  0  0  0  0  0  0  0  0
    0.3430   22.5590   16.9300 H   0  0  0  0  0  0  0  0  0  0  0  0
    3.6150   23.4980   17.5560 H   0  0  0  0  0  0  0  0  0  0  0  0
    0.7620   20.3000   17.3520 H   0  0  0  0  0  0  0  0  0  0  0  0
    2.4430   20.6210   17.8690 H   0  0  0  0  0  0  0  0  0  0  0  0
   -1.9080   14.8940   20.1840 H   0  0  0  0  0  0  0  0  0  0  0  0
    1.0240   16.2300   21.6420 H   0  0  0  0  0  0  0  0  0  0  0  0
    1.0450   22.3870   19.1600 H   0  0  0  0  0  0  0  0  0  0  0  0
  1  2  2  0  0  0  0
  2  3  1  0  0  0  0
  2  4  1  0  0  0  0
  3  5  1  0  0  0  0
  3 10  2  0  0  0  0
  4  6  1  0  0  0  0
  4 13  1  0  0  0  0
  5  7  2  0  0  0  0
  5  8  1  0  0  0  0
  6  8  1  0  0  0  0
  6  9  2  0  0  0  0
  7 12  1  0  0  0  0
  7 30  1  0  0  0  0
  8 34  1  0  0  0  0
  9 11  1  0  0  0  0
  9 35  1  0  0  0  0
 10 32  1  0  0  0  0
 10 36  1  0  0  0  0
 11 15  1  0  0  0  0
 11 16  2  0  0  0  0
 12 37  1  0  0  0  0
 12 38  1  0  0  0  0
 12 39  1  0  0  0  0
 13 14  1  0  0  0  0
 13 16  1  0  0  0  0
 13 40  1  0  0  0  0
 14 18  1  0  0  0  0
 15 17  1  0  0  0  0
 16 41  1  0  0  0  0
 17 20  1  0  0  0  0
 17 42  1  0  0  0  0
 17 43  1  0  0  0  0
 18 19  1  0  0  0  0
 18 28  1  0  0  0  0
 18 44  1  0  0  0  0
 19 21  1  0  0  0  0
 19 45  1  0  0  0  0
 19 46  1  0  0  0  0
 20 22  1  0  0  0  0
 20 47  1  0  0  0  0
 20 48  1  0  0  0  0
 21 24  1  0  0  0  0
 21 26  1  0  0  0  0
 21 49  1  0  0  0  0
 22 23  1  0  0  0  0
 23 25  1  0  0  0  0
 23 50  1  0  0  0  0
 23 51  1  0  0  0  0
 24 28  1  0  0  0  0
 24 33  1  0  0  0  0
 24 52  1  0  0  0  0
 25 27  1  0  0  0  0
 25 29  2  0  0  0  0
 26 53  1  0  0  0  0
 28 54  1  0  0  0  0
 28 55  1  0  0  0  0
 30 31  1  0  0  0  0
 30 32  2  0  0  0  0
 31 56  1  0  0  0  0
 32 57  1  0  0  0  0
 33 58  1  0  0  0  0
M  CHG  1  27  -1
M  END
> <rseq>
1

> <mseq>
364

> <S>
-6.058081

> <rmsd_refine>
2.316806

> <E_conf>
-150.347

> <E_score1>
-12.93216

> <E_refine>
-34.65612

> <E_score2>
-6.058081

>  <$File>
outputs/pdb_4j58_cleaned.pdb_2024_06_17__22_47_40_V2_BS398_MIN1_/SDF/sdf_db.sdf

> <Rec_index>
1

>  <PLIF_raw>
[[1,27,27,2,4,6,8,5,3,3,5,7,30,32,10],[954,823,823,954,954,954,954,954,954,1519,1519,1519,1519,1519,1519],[62,54,54,62,62,62,62,62,62,102,102,102,102,102,102],[2,2,7,10,10,10,10,10,10,10,10,10,10,10,10],[0.5,6.6,5.034324562,1.4,1.4,1.4,1.4,1.4,1.4,0.8,0.8,0.8,0.8,0.8,0.8]]

> <FP:PLIF>
6 19 1 16 20 21 30 22

>  <PLIF_ligidx>
[27,27,27,27,1,[2,4,6,8,5,3],[2,4,6,8,5,3],[3,5,7,30,32,10]]

$$$$
364
  MOE2022           3D

 67 71  0  0  1  0  0  0  0  0999 V2000
    2.6450   16.4770   20.5570 C   0  0  0  0  0  0  0  0  0  0  0  0
    1.3590   15.9620   20.6610 C   0  0  0  0  0  0  0  0  0  0  0  0
    2.9820   17.3010   19.4890 C   0  0  0  0  0  0  0  0  0  0  0  0
    0.4120   16.2680   19.6920 C   0  0  0  0  0  0  0  0  0  0  0  0
    0.7500   17.0910   18.6210 C   0  0  0  0  0  0  0  0  0  0  0  0
    2.0380   17.6160   18.5100 C   0  0  0  0  0  0  0  0  0  0  0  0
    2.4010   18.4750   17.3030 C   0  0  1  0  0  0  0  0  0  0  0  0
    3.3730   19.5300   17.6380 N   0  0  0  0  0  0  0  0  0  0  0  0
    2.8920   17.5860   16.1710 C   0  0  0  0  0  0  0  0  0  0  0  0
    3.1010   20.8410   17.7070 C   0  0  0  0  0  0  0  0  0  0  0  0
    1.9500   16.9060   15.5030 N   0  0  0  0  0  0  0  0  0  0  0  0
    1.9930   21.2830   17.4010 O   0  0  0  0  0  0  0  0  0  0  0  0
    4.2390   21.8150   18.1270 C   0  0  2  0  0  0  0  0  0  0  0  0
    4.0910   17.4020   15.9740 O   0  0  0  0  0  0  0  0  0  0  0  0
    2.2310   15.7360   14.6830 C   0  0  1  0  0  0  0  0  0  0  0  0
    5.3280   21.1500   19.0260 C   0  0  0  0  0  0  0  0  0  0  0  0
    3.6170   22.9720   18.9490 C   0  0  0  0  0  0  0  0  0  0  0  0
    4.9190   22.4340   16.8710 C   0  0  1  0  0  0  0  0  0  0  0  0
    5.9410   23.3580   17.2440 O   0  0  0  0  0  0  0  0  0  0  0  0
    5.6940   21.3960   16.0590 C   0  0  0  0  0  0  0  0  0  0  0  0
    6.4350   20.4050   18.2410 C   0  0  1  0  0  0  0  0  0  0  0  0
    6.8840   21.2030   16.9930 C   0  0  2  0  0  0  0  0  0  0  0  0
    7.6240   20.0880   19.1590 C   0  0  0  0  0  0  0  0  0  0  0  0
    0.9820   15.1050   14.0850 C   0  0  0  0  0  0  0  0  0  0  0  0
    3.0690   16.0280   13.5600 O   0  0  0  0  0  0  0  0  0  0  0  0
    1.4410   14.4650   12.7800 C   0  0  0  0  0  0  0  0  0  0  0  0
    2.5460   15.4430   12.3280 C   0  0  1  0  0  0  0  0  0  0  0  0
    7.1920   22.6800   17.2780 C   0  0  0  0  0  0  0  0  0  0  0  0
    2.0840   16.5990   11.4310 C   0  0  0  0  0  0  0  0  0  0  0  0
    3.6940   14.7930   11.5350 C   0  0  2  0  0  0  0  0  0  0  0  0
    3.4130   17.0180   10.7890 C   0  0  0  0  0  0  0  0  0  0  0  0
    4.2880   15.8690   10.8010 O   0  0  0  0  0  0  0  0  0  0  0  0
    3.2290   13.8180   10.5840 O   0  0  0  0  0  0  0  0  0  0  0  0
    3.3690   16.2380   21.2920 H   0  0  0  0  0  0  0  0  0  0  0  0
    1.1060   15.3380   21.4770 H   0  0  0  0  0  0  0  0  0  0  0  0
    3.9630   17.6910   19.4280 H   0  0  0  0  0  0  0  0  0  0  0  0
   -0.5700   15.8760   19.7660 H   0  0  0  0  0  0  0  0  0  0  0  0
    0.0210   17.3150   17.8860 H   0  0  0  0  0  0  0  0  0  0  0  0
    1.4840   18.9420   16.9650 H   0  0  0  0  0  0  0  0  0  0  0  0
    4.3030   19.2250   17.8730 H   0  0  0  0  0  0  0  0  0  0  0  0
    0.9860   17.0580   15.7560 H   0  0  0  0  0  0  0  0  0  0  0  0
    2.7580   15.0000   15.2740 H   0  0  0  0  0  0  0  0  0  0  0  0
    5.8220   21.9310   19.6040 H   0  0  0  0  0  0  0  0  0  0  0  0
    4.8630   20.4700   19.7410 H   0  0  0  0  0  0  0  0  0  0  0  0
    2.9000   23.5240   18.3390 H   0  0  0  0  0  0  0  0  0  0  0  0
    3.0970   22.5750   19.8210 H   0  0  0  0  0  0  0  0  0  0  0  0
    4.3820   23.6720   19.2830 H   0  0  0  0  0  0  0  0  0  0  0  0
    4.1700   22.9250   16.2480 H   0  0  0  0  0  0  0  0  0  0  0  0
    5.1360   20.4760   15.8900 H   0  0  0  0  0  0  0  0  0  0  0  0
    6.0120   21.8240   15.1070 H   0  0  0  0  0  0  0  0  0  0  0  0
    6.0360   19.4530   17.8990 H   0  0  0  0  0  0  0  0  0  0  0  0
    7.7140   20.7080   16.4870 H   0  0  0  0  0  0  0  0  0  0  0  0
    8.3840   19.5370   18.6020 H   0  0  0  0  0  0  0  0  0  0  0  0
    8.0670   21.0050   19.5480 H   0  0  0  0  0  0  0  0  0  0  0  0
    7.2890   19.4760   19.9950 H   0  0  0  0  0  0  0  0  0  0  0  0
    0.5460   14.3770   14.7680 H   0  0  0  0  0  0  0  0  0  0  0  0
    0.2520   15.8850   13.8600 H   0  0  0  0  0  0  0  0  0  0  0  0
    1.8760   13.4870   12.9940 H   0  0  0  0  0  0  0  0  0  0  0  0
    0.6320   14.3800   12.0540 H   0  0  0  0  0  0  0  0  0  0  0  0
    7.8300   23.0760   16.4870 H   0  0  0  0  0  0  0  0  0  0  0  0
    7.6850   22.8130   18.2410 H   0  0  0  0  0  0  0  0  0  0  0  0
    1.4090   16.2280   10.6600 H   0  0  0  0  0  0  0  0  0  0  0  0
    1.6280   17.4120   11.9970 H   0  0  0  0  0  0  0  0  0  0  0  0
    4.4240   14.3250   12.1770 H   0  0  0  0  0  0  0  0  0  0  0  0
    3.2610   17.3570    9.7640 H   0  0  0  0  0  0  0  0  0  0  0  0
    3.8780   17.8060   11.3840 H   0  0  0  0  0  0  0  0  0  0  0  0
    3.9860   13.4580   10.0950 H   0  0  0  0  0  0  0  0  0  0  0  0
  1  2  2  0  0  0  0
  1  3  1  0  0  0  0
  1 34  1  0  0  0  0
  2  4  1  0  0  0  0
  2 35  1  0  0  0  0
  3  6  2  0  0  0  0
  3 36  1  0  0  0  0
  4  5  2  0  0  0  0
  4 37  1  0  0  0  0
  5  6  1  0  0  0  0
  5 38  1  0  0  0  0
  6  7  1  0  0  0  0
  7  8  1  0  0  0  0
  7  9  1  0  0  0  0
  7 39  1  0  0  0  0
  8 10  1  0  0  0  0
  8 40  1  0  0  0  0
  9 11  1  0  0  0  0
  9 14  2  0  0  0  0
 10 12  2  0  0  0  0
 10 13  1  0  0  0  0
 11 15  1  0  0  0  0
 11 41  1  0  0  0  0
 13 16  1  0  0  0  0
 13 17  1  0  0  0  0
 13 18  1  0  0  0  0
 15 24  1  0  0  0  0
 15 25  1  0  0  0  0
 15 42  1  0  0  0  0
 16 21  1  0  0  0  0
 16 43  1  0  0  0  0
 16 44  1  0  0  0  0
 17 45  1  0  0  0  0
 17 46  1  0  0  0  0
 17 47  1  0  0  0  0
 18 19  1  0  0  0  0
 18 20  1  0  0  0  0
 18 48  1  0  0  0  0
 19 28  1  0  0  0  0
 20 22  1  0  0  0  0
 20 49  1  0  0  0  0
 20 50  1  0  0  0  0
 21 22  1  0  0  0  0
 21 23  1  0  0  0  0
 21 51  1  0  0  0  0
 22 28  1  0  0  0  0
 22 52  1  0  0  0  0
 23 53  1  0  0  0  0
 23 54  1  0  0  0  0
 23 55  1  0  0  0  0
 24 26  1  0  0  0  0
 24 56  1  0  0  0  0
 24 57  1  0  0  0  0
 25 27  1  0  0  0  0
 26 27  1  0  0  0  0
 26 58  1  0  0  0  0
 26 59  1  0  0  0  0
 27 29  1  0  0  0  0
 27 30  1  0  0  0  0
 28 60  1  0  0  0  0
 28 61  1  0  0  0  0
 29 31  1  0  0  0  0
 29 62  1  0  0  0  0
 29 63  1  0  0  0  0
 30 32  1  0  0  0  0
 30 33  1  0  0  0  0
 30 64  1  0  0  0  0
 31 32  1  0  0  0  0
 31 65  1  0  0  0  0
 31 66  1  0  0  0  0
 33 67  1  0  0  0  0
M  END
> <rseq>
1

> <mseq>
365

> <S>
-7.571358

> <rmsd_refine>
1.185053

> <E_conf>
12.68934

> <E_score1>
-9.657546

> <E_refine>
-41.2294

> <E_score2>
-7.571358

>  <$File>
outputs/pdb_4j58_cleaned.pdb_2024_06_17__22_47_40_V2_BS398_MIN1_/SDF/sdf_db.sdf

> <Rec_index>
1

>  <PLIF_raw>
[[14,14],[820,954],[54,62],[2,2],[0.5,1.7]]

> <FP:PLIF>
6 20 23

>  <PLIF_ligidx>
[14,14,14]

$$$$
365
  MOE2022           3D

 56 59  0  0  1  0  0  0  0  0999 V2000
    3.1970   17.0980   19.3610 O   0  0  0  0  0  0  0  0  0  0  0  0
    2.2530   17.5340   18.7070 C   0  0  0  0  0  0  0  0  0  0  0  0
    2.4430   18.6990   18.0110 N   0  0  0  0  0  0  0  0  0  0  0  0
    0.9640   16.8400   18.5950 C   0  0  0  0  0  0  0  0  0  0  0  0
   -0.0650   17.3270   17.7710 C   0  0  0  0  0  0  0  0  0  0  0  0
   -1.2510   16.6170   17.6220 C   0  0  0  0  0  0  0  0  0  0  0  0
    0.7580   15.6310   19.2760 C   0  0  0  0  0  0  0  0  0  0  0  0
    3.3230   18.6920   16.8360 C   0  0  1  0  0  0  0  0  0  0  0  0
   -0.4280   14.9210   19.1180 C   0  0  0  0  0  0  0  0  0  0  0  0
   -1.4330   15.4130   18.2930 C   0  0  0  0  0  0  0  0  0  0  0  0
    2.5530   18.0250   15.6930 C   0  0  0  0  0  0  0  0  0  0  0  0
    2.5640   16.6300   15.5380 C   0  0  0  0  0  0  0  0  0  0  0  0
    3.3960   15.8530   16.2940 O   0  0  0  0  0  0  0  0  0  0  0  0
    1.7110   15.9840   14.6470 C   0  0  0  0  0  0  0  0  0  0  0  0
    0.8490   16.7540   13.8760 C   0  0  0  0  0  0  0  0  0  0  0  0
    3.8870   20.0770   16.5160 C   0  0  0  0  0  0  0  0  0  0  0  0
   -0.0310   16.1250   13.0330 O   0  0  0  0  0  0  0  0  0  0  0  0
    1.6990   18.7720   14.8740 C   0  0  0  0  0  0  0  0  0  0  0  0
    0.8540   18.1450   13.9630 C   0  0  0  0  0  0  0  0  0  0  0  0
    0.1130   16.3140   11.6080 C   0  0  0  0  0  0  0  0  0  0  0  0
    5.1120   20.1650   16.2760 O   0  0  0  0  0  0  0  0  0  0  0  0
    3.1090   21.0590   16.5120 O   0  5  0  0  0  0  0  0  0  0  0  0
    1.4000   15.7080   11.0970 C   0  0  0  0  0  0  0  0  0  0  0  0
    2.2790   16.4310   10.5530 N   0  0  0  0  0  0  0  0  0  0  0  0
    3.5140   15.8780   10.0850 C   0  0  0  0  0  0  0  0  0  0  0  0
    3.9360   14.6010   10.4880 C   0  0  0  0  0  0  0  0  0  0  0  0
    1.5820   14.2110   11.2600 C   0  0  0  0  0  0  0  0  0  0  0  0
    3.0520   13.8360   11.4540 C   0  0  0  0  0  0  0  0  0  0  0  0
    5.1510   14.0920   10.0150 C   0  0  0  0  0  0  0  0  0  0  0  0
    4.2970   16.6340    9.2160 C   0  0  0  0  0  0  0  0  0  0  0  0
    5.6860   12.7320   10.4260 C   0  0  0  0  0  0  0  0  0  0  0  0
    5.9130   14.8590    9.1390 C   0  0  0  0  0  0  0  0  0  0  0  0
    5.4920   16.1190    8.7370 C   0  0  0  0  0  0  0  0  0  0  0  0
    1.5980   19.2600   17.8260 H   0  0  0  0  0  0  0  0  0  0  0  0
    0.0500   18.2380   17.2460 H   0  0  0  0  0  0  0  0  0  0  0  0
   -2.0160   16.9930   16.9940 H   0  0  0  0  0  0  0  0  0  0  0  0
    1.5190   15.2410   19.9020 H   0  0  0  0  0  0  0  0  0  0  0  0
    4.1810   18.0770   17.0570 H   0  0  0  0  0  0  0  0  0  0  0  0
   -0.5680   13.9990   19.6160 H   0  0  0  0  0  0  0  0  0  0  0  0
   -2.3340   14.8700   18.1730 H   0  0  0  0  0  0  0  0  0  0  0  0
    3.1150   14.9180   16.2490 H   0  0  0  0  0  0  0  0  0  0  0  0
    1.7110   14.9290   14.5620 H   0  0  0  0  0  0  0  0  0  0  0  0
    1.6600   19.8260   14.9570 H   0  0  0  0  0  0  0  0  0  0  0  0
    0.2020   18.7220   13.3600 H   0  0  0  0  0  0  0  0  0  0  0  0
   -0.7320   15.8490   11.1200 H   0  0  0  0  0  0  0  0  0  0  0  0
    0.0600   17.3700   11.3780 H   0  0  0  0  0  0  0  0  0  0  0  0
    1.0020   13.8360   12.0920 H   0  0  0  0  0  0  0  0  0  0  0  0
    1.1940   13.7150   10.3810 H   0  0  0  0  0  0  0  0  0  0  0  0
    3.1480   12.7590   11.3280 H   0  0  0  0  0  0  0  0  0  0  0  0
    3.3460   14.1100   12.4670 H   0  0  0  0  0  0  0  0  0  0  0  0
    3.9770   17.5990    8.9160 H   0  0  0  0  0  0  0  0  0  0  0  0
    6.5900   12.4760    9.8730 H   0  0  0  0  0  0  0  0  0  0  0  0
    5.9430   12.7310   11.4830 H   0  0  0  0  0  0  0  0  0  0  0  0
    4.9550   11.9470   10.2350 H   0  0  0  0  0  0  0  0  0  0  0  0
    6.8230   14.4750    8.7730 H   0  0  0  0  0  0  0  0  0  0  0  0
    6.0830   16.6840    8.0640 H   0  0  0  0  0  0  0  0  0  0  0  0
  1  2  2  0  0  0  0
  2  3  1  0  0  0  0
  2  4  1  0  0  0  0
  3  8  1  0  0  0  0
  3 34  1  0  0  0  0
  4  5  2  0  0  0  0
  4  7  1  0  0  0  0
  5  6  1  0  0  0  0
  5 35  1  0  0  0  0
  6 10  2  0  0  0  0
  6 36  1  0  0  0  0
  7  9  2  0  0  0  0
  7 37  1  0  0  0  0
  8 11  1  0  0  0  0
  8 16  1  0  0  0  0
  8 38  1  0  0  0  0
  9 10  1  0  0  0  0
  9 39  1  0  0  0  0
 10 40  1  0  0  0  0
 11 12  1  0  0  0  0
 11 18  2  0  0  0  0
 12 13  1  0  0  0  0
 12 14  2  0  0  0  0
 13 41  1  0  0  0  0
 14 15  1  0  0  0  0
 14 42  1  0  0  0  0
 15 17  1  0  0  0  0
 15 19  2  0  0  0  0
 16 21  2  0  0  0  0
 16 22  1  0  0  0  0
 17 20  1  0  0  0  0
 18 19  1  0  0  0  0
 18 43  1  0  0  0  0
 19 44  1  0  0  0  0
 20 23  1  0  0  0  0
 20 45  1  0  0  0  0
 20 46  1  0  0  0  0
 23 24  2  0  0  0  0
 23 27  1  0  0  0  0
 24 25  1  0  0  0  0
 25 26  1  0  0  0  0
 25 30  2  0  0  0  0
 26 28  1  0  0  0  0
 26 29  2  0  0  0  0
 27 28  1  0  0  0  0
 27 47  1  0  0  0  0
 27 48  1  0  0  0  0
 28 49  1  0  0  0  0
 28 50  1  0  0  0  0
 29 31  1  0  0  0  0
 29 32  1  0  0  0  0
 30 33  1  0  0  0  0
 30 51  1  0  0  0  0
 31 52  1  0  0  0  0
 31 53  1  0  0  0  0
 31 54  1  0  0  0  0
 32 33  2  0  0  0  0
 32 55  1  0  0  0  0
 33 56  1  0  0  0  0
M  CHG  1  22  -1
M  END
> <rseq>
1

> <mseq>
366

> <S>
-5.9316

> <rmsd_refine>
1.762444

> <E_conf>
-31.13549

> <E_score1>
-11.90739

> <E_refine>
-29.32228

> <E_score2>
-5.9316

>  <$File>
outputs/pdb_4j58_cleaned.pdb_2024_06_17__22_47_40_V2_BS398_MIN1_/SDF/sdf_db.sdf

> <Rec_index>
1

>  <PLIF_raw>
[[13,21,25,26,29,32,33,30],[1071,826,823,823,823,823,823,823],[71,54,54,54,54,54,54,54],[3,7,10,10,10,10,10,10],[1.1,4.679411674,1.2,1.2,1.2,1.2,1.2,1.2]]

> <FP:PLIF>
1 16 2 5 7

>  <PLIF_ligidx>
[21,21,[25,26,29,32,33,30],[25,26,29,32,33,30],13]

$$$$
366
  MOE2022           3D

 60 63  0  0  1  0  0  0  0  0999 V2000
    2.4310   16.3650   20.7460 C   0  0  0  0  0  0  0  0  0  0  0  0
    1.1200   15.9190   20.8360 C   0  0  0  0  0  0  0  0  0  0  0  0
    2.8670   17.0150   19.5980 C   0  0  0  0  0  0  0  0  0  0  0  0
    0.2470   16.1080   19.7720 C   0  0  0  0  0  0  0  0  0  0  0  0
    0.6870   16.7500   18.6180 C   0  0  0  0  0  0  0  0  0  0  0  0
    2.0000   17.2120   18.5210 C   0  0  0  0  0  0  0  0  0  0  0  0
    2.4540   17.8770   17.2290 C   0  0  1  0  0  0  0  0  0  0  0  0
    3.5600   18.8300   17.4260 N   0  0  0  0  0  0  0  0  0  0  0  0
    2.8040   16.8430   16.1670 C   0  0  0  0  0  0  0  0  0  0  0  0
    3.8920   19.8110   16.5190 C   0  0  0  0  0  0  0  0  0  0  0  0
    2.3210   17.0630   14.9360 N   0  0  0  0  0  0  0  0  0  0  0  0
    3.0810   20.0490   15.6250 O   0  0  0  0  0  0  0  0  0  0  0  0
    5.1900   20.4950   16.6490 C   0  0  0  0  0  0  0  0  0  0  0  0
    3.5560   15.8980   16.4040 O   0  0  0  0  0  0  0  0  0  0  0  0
    2.6490   16.2440   13.7780 C   0  0  1  0  0  0  0  0  0  0  0  0
    1.5530   15.2500   13.4270 C   0  0  0  0  0  0  0  0  0  0  0  0
    2.8400   17.0480   12.4950 C   0  0  0  0  0  0  0  0  0  0  0  0
    6.0400   20.2230   17.7360 C   0  0  0  0  0  0  0  0  0  0  0  0
    1.4570   15.3070   11.8960 C   0  0  0  0  0  0  0  0  0  0  0  0
    5.6540   21.4180   15.6860 C   0  0  0  0  0  0  0  0  0  0  0  0
    2.5680   16.1380   11.3810 N   0  0  0  0  0  0  0  0  0  0  0  0
    7.2940   20.8200   17.8440 C   0  0  0  0  0  0  0  0  0  0  0  0
    4.9110   21.7450   14.5910 O   0  0  0  0  0  0  0  0  0  0  0  0
    3.7490   15.5070   10.8850 C   0  0  0  0  0  0  0  0  0  0  0  0
    7.7250   21.7170   16.8670 C   0  0  0  0  0  0  0  0  0  0  0  0
    6.9040   22.0220   15.7920 C   0  0  0  0  0  0  0  0  0  0  0  0
    8.2000   20.4780   19.0040 C   0  0  0  0  0  0  0  0  0  0  0  0
    4.6650   16.2470   10.1110 C   0  0  0  0  0  0  0  0  0  0  0  0
    4.0380   14.1630   11.1630 C   0  0  0  0  0  0  0  0  0  0  0  0
    5.2110   13.5860   10.6870 C   0  0  0  0  0  0  0  0  0  0  0  0
    6.1050   14.3290    9.9230 C   0  0  0  0  0  0  0  0  0  0  0  0
    4.4360   17.5710    9.8120 O   0  0  0  0  0  0  0  0  0  0  0  0
    5.8300   15.6600    9.6270 C   0  0  0  0  0  0  0  0  0  0  0  0
    3.0980   16.2080   21.5520 H   0  0  0  0  0  0  0  0  0  0  0  0
    0.7920   15.4380   21.7160 H   0  0  0  0  0  0  0  0  0  0  0  0
    3.8660   17.3560   19.5520 H   0  0  0  0  0  0  0  0  0  0  0  0
   -0.7530   15.7650   19.8370 H   0  0  0  0  0  0  0  0  0  0  0  0
    0.0160   16.8830   17.8080 H   0  0  0  0  0  0  0  0  0  0  0  0
    1.6090   18.4490   16.8660 H   0  0  0  0  0  0  0  0  0  0  0  0
    4.2420   18.5930   18.1600 H   0  0  0  0  0  0  0  0  0  0  0  0
    1.7380   17.8730   14.7800 H   0  0  0  0  0  0  0  0  0  0  0  0
    3.5730   15.6890   13.9440 H   0  0  0  0  0  0  0  0  0  0  0  0
    1.8340   14.2520   13.7640 H   0  0  0  0  0  0  0  0  0  0  0  0
    0.5960   15.5380   13.8660 H   0  0  0  0  0  0  0  0  0  0  0  0
    2.1310   17.8650   12.4620 H   0  0  0  0  0  0  0  0  0  0  0  0
    3.8230   17.4920   12.4490 H   0  0  0  0  0  0  0  0  0  0  0  0
    5.7390   19.5450   18.4920 H   0  0  0  0  0  0  0  0  0  0  0  0
    1.4190   14.3250   11.4480 H   0  0  0  0  0  0  0  0  0  0  0  0
    0.5240   15.7800   11.6210 H   0  0  0  0  0  0  0  0  0  0  0  0
    4.0360   21.3040   14.6350 H   0  0  0  0  0  0  0  0  0  0  0  0
    8.6810   22.1680   16.9440 H   0  0  0  0  0  0  0  0  0  0  0  0
    7.2280   22.7100   15.0530 H   0  0  0  0  0  0  0  0  0  0  0  0
    8.8240   19.6210   18.7520 H   0  0  0  0  0  0  0  0  0  0  0  0
    8.8530   21.3170   19.2470 H   0  0  0  0  0  0  0  0  0  0  0  0
    7.6170   20.2340   19.8910 H   0  0  0  0  0  0  0  0  0  0  0  0
    3.3820   13.5750   11.7470 H   0  0  0  0  0  0  0  0  0  0  0  0
    5.4270   12.5730   10.9080 H   0  0  0  0  0  0  0  0  0  0  0  0
    6.9910   13.8770    9.5680 H   0  0  0  0  0  0  0  0  0  0  0  0
    5.1280   17.9140    9.2140 H   0  0  0  0  0  0  0  0  0  0  0  0
    6.5040   16.2190    9.0330 H   0  0  0  0  0  0  0  0  0  0  0  0
  1  2  2  0  0  0  0
  1  3  1  0  0  0  0
  1 34  1  0  0  0  0
  2  4  1  0  0  0  0
  2 35  1  0  0  0  0
  3  6  2  0  0  0  0
  3 36  1  0  0  0  0
  4  5  2  0  0  0  0
  4 37  1  0  0  0  0
  5  6  1  0  0  0  0
  5 38  1  0  0  0  0
  6  7  1  0  0  0  0
  7  8  1  0  0  0  0
  7  9  1  0  0  0  0
  7 39  1  0  0  0  0
  8 10  1  0  0  0  0
  8 40  1  0  0  0  0
  9 11  1  0  0  0  0
  9 14  2  0  0  0  0
 10 12  2  0  0  0  0
 10 13  1  0  0  0  0
 11 15  1  0  0  0  0
 11 41  1  0  0  0  0
 13 18  1  0  0  0  0
 13 20  2  0  0  0  0
 15 16  1  0  0  0  0
 15 17  1  0  0  0  0
 15 42  1  0  0  0  0
 16 19  1  0  0  0  0
 16 43  1  0  0  0  0
 16 44  1  0  0  0  0
 17 21  1  0  0  0  0
 17 45  1  0  0  0  0
 17 46  1  0  0  0  0
 18 22  2  0  0  0  0
 18 47  1  0  0  0  0
 19 21  1  0  0  0  0
 19 48  1  0  0  0  0
 19 49  1  0  0  0  0
 20 23  1  0  0  0  0
 20 26  1  0  0  0  0
 21 24  1  0  0  0  0
 22 25  1  0  0  0  0
 22 27  1  0  0  0  0
 23 50  1  0  0  0  0
 24 28  2  0  0  0  0
 24 29  1  0  0  0  0
 25 26  2  0  0  0  0
 25 51  1  0  0  0  0
 26 52  1  0  0  0  0
 27 53  1  0  0  0  0
 27 54  1  0  0  0  0
 27 55  1  0  0  0  0
 28 32  1  0  0  0  0
 28 33  1  0  0  0  0
 29 30  2  0  0  0  0
 29 56  1  0  0  0  0
 30 31  1  0  0  0  0
 30 57  1  0  0  0  0
 31 33  2  0  0  0  0
 31 58  1  0  0  0  0
 32 59  1  0  0  0  0
 33 60  1  0  0  0  0
M  END
> <rseq>
1

> <mseq>
367

> <S>
-7.533046

> <rmsd_refine>
1.623016

> <E_conf>
24.78374

> <E_score1>
-9.708727

> <E_refine>
-42.84212

> <E_score2>
-7.533046

>  <$File>
outputs/pdb_4j58_cleaned.pdb_2024_06_17__22_47_40_V2_BS398_MIN1_/SDF/sdf_db.sdf

> <Rec_index>
1

>  <PLIF_raw>
[[32,14,24,28,33,31,30,29],[2222,954,820,820,820,820,820,820],[148,62,54,54,54,54,54,54],[3,2,10,10,10,10,10,10],[0.9,1.6,0.6,0.6,0.6,0.6,0.6,0.6]]

> <FP:PLIF>
2 20 23 39

>  <PLIF_ligidx>
[[24,28,33,31,30,29],14,14,32]

$$$$
367
  MOE2022           3D

 52 54  0  0  1  0  0  0  0  0999 V2000
    8.1510   20.6560   18.4030 C   0  0  0  0  0  0  0  0  0  0  0  0
    8.2640   21.7510   17.5530 C   0  0  0  0  0  0  0  0  0  0  0  0
    6.9030   20.0900   18.6470 C   0  0  0  0  0  0  0  0  0  0  0  0
    5.7600   20.6160   18.0430 C   0  0  0  0  0  0  0  0  0  0  0  0
    5.8820   21.7080   17.1850 C   0  0  0  0  0  0  0  0  0  0  0  0
    7.1300   22.2750   16.9420 C   0  0  0  0  0  0  0  0  0  0  0  0
    4.3980   20.0050   18.3220 C   0  0  0  0  0  0  0  0  0  0  0  0
    3.9200   18.9850   17.2850 C   0  0  0  0  0  0  0  0  0  0  0  0
    2.8760   18.0410   17.5270 N   0  0  0  0  0  0  0  0  0  0  0  0
    2.6590   17.4490   18.8140 C   0  0  0  0  0  0  0  0  0  0  0  0
    2.1560   17.5510   16.3170 C   0  0  2  0  0  0  0  0  0  0  0  0
    4.3860   19.0340   16.1610 O   0  0  0  0  0  0  0  0  0  0  0  0
    0.6340   17.5430   16.5310 C   0  0  1  0  0  0  0  0  0  0  0  0
    1.4450   16.7370   19.2800 C   0  0  0  0  0  0  0  0  0  0  0  0
    2.8190   16.2580   15.7730 C   0  0  0  0  0  0  0  0  0  0  0  0
    1.2120   16.6330   20.4780 O   0  0  0  0  0  0  0  0  0  0  0  0
    3.5980   17.5040   19.5920 O   0  0  0  0  0  0  0  0  0  0  0  0
   -0.0810   17.8000   15.2960 O   0  0  0  0  0  0  0  0  0  0  0  0
    0.1480   16.2900   17.2130 C   0  0  0  0  0  0  0  0  0  0  0  0
    2.1310   15.5400   14.6020 C   0  0  0  0  0  0  0  0  0  0  0  0
    1.8210   16.4130   13.4870 O   0  0  0  0  0  0  0  0  0  0  0  0
    2.6350   16.8440   12.4540 C   0  0  0  0  0  0  0  0  0  0  0  0
   -0.5570   15.4550   16.6850 O   0  0  0  0  0  0  0  0  0  0  0  0
    0.5270   16.0520   18.5010 N   0  0  0  0  0  0  0  0  0  0  0  0
    3.4400   15.9840   11.6920 C   0  0  0  0  0  0  0  0  0  0  0  0
    2.5930   18.2030   12.1610 C   0  0  0  0  0  0  0  0  0  0  0  0
    3.4420   14.6410   11.9370 O   0  0  0  0  0  0  0  0  0  0  0  0
    4.2410   16.4860   10.6540 C   0  0  0  0  0  0  0  0  0  0  0  0
    5.1610   15.6400    9.9030 C   0  0  0  0  0  0  0  0  0  0  0  0
    4.1680   17.8560   10.3640 C   0  0  0  0  0  0  0  0  0  0  0  0
    6.3990   15.8360   10.0380 O   0  5  0  0  0  0  0  0  0  0  0  0
    3.3570   18.7050   11.1110 C   0  0  0  0  0  0  0  0  0  0  0  0
    4.7170   14.7500    9.1310 O   0  0  0  0  0  0  0  0  0  0  0  0
    9.0150   20.2540   18.8650 H   0  0  0  0  0  0  0  0  0  0  0  0
    9.2120   22.1860   17.3710 H   0  0  0  0  0  0  0  0  0  0  0  0
    6.8260   19.2570   19.2970 H   0  0  0  0  0  0  0  0  0  0  0  0
    5.0220   22.1120   16.7150 H   0  0  0  0  0  0  0  0  0  0  0  0
    7.2160   23.1080   16.2930 H   0  0  0  0  0  0  0  0  0  0  0  0
    4.4280   19.6240   19.3260 H   0  0  0  0  0  0  0  0  0  0  0  0
    3.6620   20.7940   18.3720 H   0  0  0  0  0  0  0  0  0  0  0  0
    2.2820   18.2860   15.5330 H   0  0  0  0  0  0  0  0  0  0  0  0
    0.4000   18.3820   17.1740 H   0  0  0  0  0  0  0  0  0  0  0  0
    3.8220   16.5220   15.4440 H   0  0  0  0  0  0  0  0  0  0  0  0
    2.9360   15.5540   16.5920 H   0  0  0  0  0  0  0  0  0  0  0  0
    0.2680   18.5910   14.8530 H   0  0  0  0  0  0  0  0  0  0  0  0
    2.7710   14.7250   14.2730 H   0  0  0  0  0  0  0  0  0  0  0  0
    1.1970   15.1000   14.9450 H   0  0  0  0  0  0  0  0  0  0  0  0
    0.0250   15.2830   18.9710 H   0  0  0  0  0  0  0  0  0  0  0  0
    1.9780   18.8520   12.7290 H   0  0  0  0  0  0  0  0  0  0  0  0
    2.7590   14.4110   12.5950 H   0  0  0  0  0  0  0  0  0  0  0  0
    4.7400   18.2510    9.5650 H   0  0  0  0  0  0  0  0  0  0  0  0
    3.3200   19.7380   10.8790 H   0  0  0  0  0  0  0  0  0  0  0  0
  1  2  2  0  0  0  0
  1  3  1  0  0  0  0
  1 34  1  0  0  0  0
  2  6  1  0  0  0  0
  2 35  1  0  0  0  0
  3  4  2  0  0  0  0
  3 36  1  0  0  0  0
  4  5  1  0  0  0  0
  4  7  1  0  0  0  0
  5  6  2  0  0  0  0
  5 37  1  0  0  0  0
  6 38  1  0  0  0  0
  7  8  1  0  0  0  0
  7 39  1  0  0  0  0
  7 40  1  0  0  0  0
  8  9  1  0  0  0  0
  8 12  2  0  0  0  0
  9 10  1  0  0  0  0
  9 11  1  0  0  0  0
 10 14  1  0  0  0  0
 10 17  2  0  0  0  0
 11 13  1  0  0  0  0
 11 15  1  0  0  0  0
 11 41  1  0  0  0  0
 13 18  1  0  0  0  0
 13 19  1  0  0  0  0
 13 42  1  0  0  0  0
 14 16  2  0  0  0  0
 14 24  1  0  0  0  0
 15 20  1  0  0  0  0
 15 43  1  0  0  0  0
 15 44  1  0  0  0  0
 18 45  1  0  0  0  0
 19 23  2  0  0  0  0
 19 24  1  0  0  0  0
 20 21  1  0  0  0  0
 20 46  1  0  0  0  0
 20 47  1  0  0  0  0
 21 22  1  0  0  0  0
 22 25  1  0  0  0  0
 22 26  2  0  0  0  0
 24 48  1  0  0  0  0
 25 27  1  0  0  0  0
 25 28  2  0  0  0  0
 26 32  1  0  0  0  0
 26 49  1  0  0  0  0
 27 50  1  0  0  0  0
 28 29  1  0  0  0  0
 28 30  1  0  0  0  0
 29 31  1  0  0  0  0
 29 33  2  0  0  0  0
 30 32  2  0  0  0  0
 30 51  1  0  0  0  0
 32 52  1  0  0  0  0
M  CHG  1  31  -1
M  END
> <rseq>
1

> <mseq>
368

> <S>
-6.913616

> <rmsd_refine>
1.207688

> <E_conf>
-44.62507

> <E_score1>
-10.24143

> <E_refine>
-40.63504

> <E_score2>
-6.913616

>  <$File>
outputs/pdb_4j58_cleaned.pdb_2024_06_17__22_47_40_V2_BS398_MIN1_/SDF/sdf_db.sdf

> <Rec_index>
1

>  <PLIF_raw>
[[31,31],[823,823],[54,54],[2,7],[6.6,4.304076064]]

> <FP:PLIF>
6 19 1 16

>  <PLIF_ligidx>
[31,31,31,31]

$$$$
368
  MOE2022           3D

 52 54  0  0  1  0  0  0  0  0999 V2000
    2.4100   16.4040   20.5070 C   0  0  0  0  0  0  0  0  0  0  0  0
    1.1500   15.8480   20.6810 C   0  0  0  0  0  0  0  0  0  0  0  0
    2.7430   17.0170   19.3040 C   0  0  0  0  0  0  0  0  0  0  0  0
    0.2240   15.8990   19.6460 C   0  0  0  0  0  0  0  0  0  0  0  0
    0.5580   16.5070   18.4400 C   0  0  0  0  0  0  0  0  0  0  0  0
    1.8220   17.0710   18.2510 C   0  0  0  0  0  0  0  0  0  0  0  0
    2.1420   17.7350   16.9100 C   0  0  1  0  0  0  0  0  0  0  0  0
    3.4140   18.4730   16.9180 N   0  0  0  0  0  0  0  0  0  0  0  0
    2.0740   16.7280   15.7320 C   0  0  0  0  0  0  0  0  0  0  0  0
    3.5270   19.7700   17.3500 C   0  0  0  0  0  0  0  0  0  0  0  0
    2.5010   17.1660   14.3560 N   0  0  0  0  0  0  0  0  0  0  0  0
    2.3860   18.4830   13.8990 C   0  0  0  0  0  0  0  0  0  0  0  0
    1.6900   19.2830   14.5390 O   0  0  0  0  0  0  0  0  0  0  0  0
    2.9540   16.2090   13.4300 C   0  0  0  0  0  0  0  0  0  0  0  0
    4.8490   20.3680   17.3310 C   0  0  0  0  0  0  0  0  0  0  0  0
    2.8660   14.9080   13.8360 O   0  0  0  0  0  0  0  0  0  0  0  0
    3.4540   16.5740   12.1980 C   0  0  0  0  0  0  0  0  0  0  0  0
    3.9450   15.5720   11.2460 C   0  0  0  0  0  0  0  0  0  0  0  0
    3.4190   14.4230   11.1940 O   0  0  0  0  0  0  0  0  0  0  0  0
    2.5340   20.3710   17.7440 O   0  0  0  0  0  0  0  0  0  0  0  0
    3.0770   18.8500   12.6670 C   0  0  0  0  0  0  0  0  0  0  0  0
    4.9450   15.8330   10.5130 O   0  5  0  0  0  0  0  0  0  0  0  0
    3.2310   20.0920   12.3920 O   0  0  0  0  0  0  0  0  0  0  0  0
    3.5540   17.9260   11.8500 N   0  5  0  0  0  0  0  0  0  0  0  0
    5.6570   20.3950   18.4760 C   0  0  0  0  0  0  0  0  0  0  0  0
    5.3390   20.9320   16.1520 C   0  0  0  0  0  0  0  0  0  0  0  0
    6.6200   21.4990   16.0930 C   0  0  0  0  0  0  0  0  0  0  0  0
    5.1830   19.9140   19.6610 O   0  0  0  0  0  0  0  0  0  0  0  0
    7.1430   22.1190   14.8740 C   0  0  0  0  0  0  0  0  0  0  0  0
    7.4220   21.4660   17.2470 C   0  0  0  0  0  0  0  0  0  0  0  0
    6.4370   22.3230   13.7410 C   0  0  0  0  0  0  0  0  0  0  0  0
    6.9460   20.9210   18.4330 C   0  0  0  0  0  0  0  0  0  0  0  0
    7.0090   22.9970   12.5160 C   0  0  0  0  0  0  0  0  0  0  0  0
    3.1190   16.3610   21.2920 H   0  0  0  0  0  0  0  0  0  0  0  0
    0.9010   15.3910   21.6000 H   0  0  0  0  0  0  0  0  0  0  0  0
    3.7030   17.4460   19.2040 H   0  0  0  0  0  0  0  0  0  0  0  0
   -0.7400   15.4770   19.7750 H   0  0  0  0  0  0  0  0  0  0  0  0
   -0.1600   16.5430   17.6610 H   0  0  0  0  0  0  0  0  0  0  0  0
    1.3460   18.4480   16.7480 H   0  0  0  0  0  0  0  0  0  0  0  0
    4.2430   18.0040   16.5240 H   0  0  0  0  0  0  0  0  0  0  0  0
    2.6770   15.8830   16.0350 H   0  0  0  0  0  0  0  0  0  0  0  0
    1.0690   16.3330   15.6700 H   0  0  0  0  0  0  0  0  0  0  0  0
    3.1270   14.3330   13.0830 H   0  0  0  0  0  0  0  0  0  0  0  0
    4.7180   20.9200   15.2940 H   0  0  0  0  0  0  0  0  0  0  0  0
    4.2260   19.7080   19.5810 H   0  0  0  0  0  0  0  0  0  0  0  0
    8.1530   22.4320   14.9180 H   0  0  0  0  0  0  0  0  0  0  0  0
    8.4010   21.8700   17.2170 H   0  0  0  0  0  0  0  0  0  0  0  0
    5.4210   22.0350   13.6490 H   0  0  0  0  0  0  0  0  0  0  0  0
    7.5550   20.9130   19.3010 H   0  0  0  0  0  0  0  0  0  0  0  0
    6.4640   23.9020   12.2860 H   0  0  0  0  0  0  0  0  0  0  0  0
    8.0460   23.2700   12.6430 H   0  0  0  0  0  0  0  0  0  0  0  0
    6.9410   22.3540   11.6490 H   0  0  0  0  0  0  0  0  0  0  0  0
  1  2  2  0  0  0  0
  1  3  1  0  0  0  0
  1 34  1  0  0  0  0
  2  4  1  0  0  0  0
  2 35  1  0  0  0  0
  3  6  2  0  0  0  0
  3 36  1  0  0  0  0
  4  5  2  0  0  0  0
  4 37  1  0  0  0  0
  5  6  1  0  0  0  0
  5 38  1  0  0  0  0
  6  7  1  0  0  0  0
  7  8  1  0  0  0  0
  7  9  1  0  0  0  0
  7 39  1  0  0  0  0
  8 10  1  0  0  0  0
  8 40  1  0  0  0  0
  9 11  1  0  0  0  0
  9 41  1  0  0  0  0
  9 42  1  0  0  0  0
 10 15  1  0  0  0  0
 10 20  2  0  0  0  0
 11 12  1  0  0  0  0
 11 14  1  0  0  0  0
 12 13  2  0  0  0  0
 12 21  1  0  0  0  0
 14 16  1  0  0  0  0
 14 17  2  0  0  0  0
 15 25  2  0  0  0  0
 15 26  1  0  0  0  0
 16 43  1  0  0  0  0
 17 18  1  0  0  0  0
 17 24  1  0  0  0  0
 18 19  2  0  0  0  0
 18 22  1  0  0  0  0
 21 23  2  0  0  0  0
 21 24  1  0  0  0  0
 25 28  1  0  0  0  0
 25 32  1  0  0  0  0
 26 27  2  0  0  0  0
 26 44  1  0  0  0  0
 27 29  1  0  0  0  0
 27 30  1  0  0  0  0
 28 45  1  0  0  0  0
 29 31  2  0  0  0  0
 29 46  1  0  0  0  0
 30 32  2  0  0  0  0
 30 47  1  0  0  0  0
 31 33  1  0  0  0  0
 31 48  1  0  0  0  0
 32 49  1  0  0  0  0
 33 50  1  0  0  0  0
 33 51  1  0  0  0  0
 33 52  1  0  0  0  0
M  CHG  1  22  -1
M  CHG  1  24  -1
M  END
> <rseq>
1

> <mseq>
369

> <S>
-6.54104

> <rmsd_refine>
1.406609

> <E_conf>
-42.25317

> <E_score1>
-11.94284

> <E_refine>
-37.67257

> <E_score2>
-6.54104

>  <$File>
outputs/pdb_4j58_cleaned.pdb_2024_06_17__22_47_40_V2_BS398_MIN1_/SDF/sdf_db.sdf

> <Rec_index>
1

>  <PLIF_raw>
[[28,22,22,23,24,24,1,3,6,5,4,2],[1504,823,823,829,823,829,1519,1519,1519,1519,1519,1519],[101,54,54,54,54,54,102,102,102,102,102,102],[3,2,7,7,7,7,10,10,10,10,10,10],[1.6,3.6,4.363871964,1.475431596,3.72069096,1.863641831,0.8,0.8,0.8,0.8,0.8,0.8]]

> <FP:PLIF>
6 19 1 16 8 10 22

>  <PLIF_ligidx>
[22,22,[22,23,24,24],[22,24],28,28,[1,3,6,5,4,2]]

$$$$
369
  MOE2022           3D

 56 58  0  0  0  0  0  0  0  0999 V2000
    5.1750   14.8020   10.0610 C   0  0  0  0  0  0  0  0  0  0  0  0
    4.3480   14.7350   11.1750 C   0  0  0  0  0  0  0  0  0  0  0  0
    3.6180   15.8630   11.5790 C   0  0  0  0  0  0  0  0  0  0  0  0
    5.9210   13.7030    9.7170 O   0  0  0  0  0  0  0  0  0  0  0  0
    3.7000   17.0390   10.8100 C   0  0  0  0  0  0  0  0  0  0  0  0
    2.8100   15.8090   12.7970 C   0  0  0  0  0  0  0  0  0  0  0  0
    2.6130   16.9760   13.4980 N   0  0  0  0  0  0  0  0  0  0  0  0
    2.3230   14.7690   13.2330 O   0  0  0  0  0  0  0  0  0  0  0  0
    5.2530   15.9790    9.3110 C   0  0  0  0  0  0  0  0  0  0  0  0
    1.8120   17.0710   14.7350 C   0  0  0  0  0  0  0  0  0  0  0  0
    2.5950   16.7220   15.9920 C   0  0  0  0  0  0  0  0  0  0  0  0
    1.0470   18.3830   14.8260 C   0  0  0  0  0  0  0  0  0  0  0  0
    3.6170   16.0350   15.9380 O   0  0  0  0  0  0  0  0  0  0  0  0
    0.6800   18.9600   13.8010 O   0  0  0  0  0  0  0  0  0  0  0  0
    0.6920   18.8390   16.0430 N   0  0  0  0  0  0  0  0  0  0  0  0
    6.0540   16.0470    8.2090 O   0  0  0  0  0  0  0  0  0  0  0  0
    2.0770   17.1140   17.1700 N   0  0  0  0  0  0  0  0  0  0  0  0
   -0.3930   19.8350   16.1870 C   0  0  0  0  0  0  0  0  0  0  0  0
    4.5100   17.0970    9.6800 C   0  0  0  0  0  0  0  0  0  0  0  0
    1.3240   18.3640   17.2750 C   0  0  0  0  0  0  0  0  0  0  0  0
    0.0020   21.2980   15.9220 C   0  0  0  0  0  0  0  0  0  0  0  0
    2.1560   19.3870   17.8740 O   0  0  0  0  0  0  0  0  0  0  0  0
    2.5550   16.5240   18.4340 C   0  0  0  0  0  0  0  0  0  0  0  0
    1.4770   16.2690   19.5000 C   0  0  0  0  0  0  0  0  0  0  0  0
    3.4130   19.7910   17.4660 C   0  0  0  0  0  0  0  0  0  0  0  0
    0.4550   15.4190   19.0200 O   0  0  0  0  0  0  0  0  0  0  0  0
    0.7500   21.8570   16.9820 O   0  0  0  0  0  0  0  0  0  0  0  0
    4.4740   19.6450   18.3580 C   0  0  0  0  0  0  0  0  0  0  0  0
    5.7300   20.1130   17.9850 C   0  0  0  0  0  0  0  0  0  0  0  0
    3.6060   20.3760   16.2120 C   0  0  0  0  0  0  0  0  0  0  0  0
    4.8710   20.8420   15.8600 C   0  0  0  0  0  0  0  0  0  0  0  0
    5.9390   20.7160   16.7460 C   0  0  0  0  0  0  0  0  0  0  0  0
    6.7800   19.9830   18.8480 O   0  0  0  0  0  0  0  0  0  0  0  0
    4.2840   13.8360   11.7290 H   0  0  0  0  0  0  0  0  0  0  0  0
    5.7730   12.9770   10.3550 H   0  0  0  0  0  0  0  0  0  0  0  0
    3.1370   17.8940   11.0850 H   0  0  0  0  0  0  0  0  0  0  0  0
    3.0550   17.8420   13.1560 H   0  0  0  0  0  0  0  0  0  0  0  0
    1.0340   16.3200   14.6820 H   0  0  0  0  0  0  0  0  0  0  0  0
    6.0110   16.9310    7.7970 H   0  0  0  0  0  0  0  0  0  0  0  0
   -1.1900   19.5730   15.5050 H   0  0  0  0  0  0  0  0  0  0  0  0
   -0.8380   19.7580   17.1700 H   0  0  0  0  0  0  0  0  0  0  0  0
    4.5600   17.9860    9.1060 H   0  0  0  0  0  0  0  0  0  0  0  0
    0.5220   18.1890   17.9810 H   0  0  0  0  0  0  0  0  0  0  0  0
    0.5780   21.3700   14.9990 H   0  0  0  0  0  0  0  0  0  0  0  0
   -0.9030   21.8940   15.7990 H   0  0  0  0  0  0  0  0  0  0  0  0
    3.0310   15.5790   18.2250 H   0  0  0  0  0  0  0  0  0  0  0  0
    3.3260   17.1480   18.8610 H   0  0  0  0  0  0  0  0  0  0  0  0
    1.9430   15.7960   20.3650 H   0  0  0  0  0  0  0  0  0  0  0  0
    1.0350   17.2090   19.8290 H   0  0  0  0  0  0  0  0  0  0  0  0
    0.8480   14.7790   18.4170 H   0  0  0  0  0  0  0  0  0  0  0  0
    0.1980   21.8970   17.7660 H   0  0  0  0  0  0  0  0  0  0  0  0
    4.3270   19.1930   19.3030 H   0  0  0  0  0  0  0  0  0  0  0  0
    2.7980   20.4870   15.5390 H   0  0  0  0  0  0  0  0  0  0  0  0
    5.0180   21.3000   14.9160 H   0  0  0  0  0  0  0  0  0  0  0  0
    6.9010   21.0740   16.4840 H   0  0  0  0  0  0  0  0  0  0  0  0
    6.5030   19.5180   19.6610 H   0  0  0  0  0  0  0  0  0  0  0  0
  1  2  1  0  0  0  0
  1  4  1  0  0  0  0
  1  9  2  0  0  0  0
  2  3  2  0  0  0  0
  2 34  1  0  0  0  0
  3  5  1  0  0  0  0
  3  6  1  0  0  0  0
  4 35  1  0  0  0  0
  5 19  2  0  0  0  0
  5 36  1  0  0  0  0
  6  7  1  0  0  0  0
  6  8  2  0  0  0  0
  7 10  1  0  0  0  0
  7 37  1  0  0  0  0
  9 16  1  0  0  0  0
  9 19  1  0  0  0  0
 10 11  1  0  0  0  0
 10 12  1  0  0  0  0
 10 38  1  0  0  0  0
 11 13  2  0  0  0  0
 11 17  1  0  0  0  0
 12 14  2  0  0  0  0
 12 15  1  0  0  0  0
 15 18  1  0  0  0  0
 15 20  1  0  0  0  0
 16 39  1  0  0  0  0
 17 20  1  0  0  0  0
 17 23  1  0  0  0  0
 18 21  1  0  0  0  0
 18 40  1  0  0  0  0
 18 41  1  0  0  0  0
 19 42  1  0  0  0  0
 20 22  1  0  0  0  0
 20 43  1  0  0  0  0
 21 27  1  0  0  0  0
 21 44  1  0  0  0  0
 21 45  1  0  0  0  0
 22 25  1  0  0  0  0
 23 24  1  0  0  0  0
 23 46  1  0  0  0  0
 23 47  1  0  0  0  0
 24 26  1  0  0  0  0
 24 48  1  0  0  0  0
 24 49  1  0  0  0  0
 25 28  1  0  0  0  0
 25 30  2  0  0  0  0
 26 50  1  0  0  0  0
 27 51  1  0  0  0  0
 28 29  2  0  0  0  0
 28 52  1  0  0  0  0
 29 32  1  0  0  0  0
 29 33  1  0  0  0  0
 30 31  1  0  0  0  0
 30 53  1  0  0  0  0
 31 32  2  0  0  0  0
 31 54  1  0  0  0  0
 32 55  1  0  0  0  0
 33 56  1  0  0  0  0
M  END
> <rseq>
1

> <mseq>
370

> <S>
-6.311761

> <rmsd_refine>
1.129436

> <E_conf>
-74.55302

> <E_score1>
-10.83076

> <E_refine>
-34.71117

> <E_score2>
-6.311761

>  <$File>
outputs/pdb_4j58_cleaned.pdb_2024_06_17__22_47_40_V2_BS398_MIN1_/SDF/sdf_db.sdf

> <Rec_index>
1

>  <PLIF_raw>
[[26,13],[1071,954],[71,62],[3,2],[2.1,1.1]]

> <FP:PLIF>
20 7 14

>  <PLIF_ligidx>
[13,26,26]

$$$$
370
  MOE2022           3D

 54 57  0  0  1  0  0  0  0  0999 V2000
    2.6810   16.1290   21.1170 C   0  0  0  0  0  0  0  0  0  0  0  0
    1.4540   15.6930   21.5850 C   0  0  0  0  0  0  0  0  0  0  0  0
    2.7760   16.7500   19.8830 C   0  0  0  0  0  0  0  0  0  0  0  0
    0.3160   15.8500   20.8000 C   0  0  0  0  0  0  0  0  0  0  0  0
    0.4130   16.4580   19.5520 C   0  0  0  0  0  0  0  0  0  0  0  0
    1.6390   16.9360   19.0950 C   0  0  0  0  0  0  0  0  0  0  0  0
    1.7220   17.6610   17.7630 C   0  0  1  0  0  0  0  0  0  0  0  0
    2.8190   18.6170   17.7920 N   0  0  0  0  0  0  0  0  0  0  0  0
    1.8680   16.6740   16.5920 C   0  0  0  0  0  0  0  0  0  0  0  0
    2.7670   19.9160   17.4890 C   0  0  0  0  0  0  0  0  0  0  0  0
    1.5230   17.2630   15.2730 N   0  0  0  0  0  0  0  0  0  0  0  0
    0.2310   17.1690   14.7720 C   0  0  0  0  0  0  0  0  0  0  0  0
   -0.6460   16.4240   15.4670 O   0  0  0  0  0  0  0  0  0  0  0  0
    2.5010   17.9940   14.5640 C   0  0  0  0  0  0  0  0  0  0  0  0
    4.0620   20.6420   17.8010 C   0  0  1  0  0  0  0  0  0  0  0  0
    3.6720   17.9220   14.9770 O   0  0  0  0  0  0  0  0  0  0  0  0
    2.0850   18.7510   13.4040 C   0  0  0  0  0  0  0  0  0  0  0  0
    3.0140   19.6510   12.7500 C   0  0  0  0  0  0  0  0  0  0  0  0
    4.0170   20.1250   13.2710 O   0  0  0  0  0  0  0  0  0  0  0  0
    1.7900   20.4500   16.9660 O   0  0  0  0  0  0  0  0  0  0  0  0
   -0.1380   17.8140   13.6160 C   0  0  0  0  0  0  0  0  0  0  0  0
    2.7440   20.0120   11.4670 O   0  0  0  0  0  0  0  0  0  0  0  0
    5.1200   20.4420   16.6970 C   0  0  0  0  0  0  0  0  0  0  0  0
    0.7910   18.6160   12.9380 C   0  0  0  0  0  0  0  0  0  0  0  0
    3.9070   22.0610   18.1930 N   0  0  0  0  0  0  0  0  0  0  0  0
    5.0160   22.8550   18.3810 C   0  0  0  0  0  0  0  0  0  0  0  0
    6.3640   21.2050   17.0680 C   0  0  0  0  0  0  0  0  0  0  0  0
    4.8790   23.9090   18.9940 O   0  0  0  0  0  0  0  0  0  0  0  0
    3.5760   20.9210   10.7030 C   0  0  0  0  0  0  0  0  0  0  0  0
    6.2760   22.3580   17.8520 C   0  0  0  0  0  0  0  0  0  0  0  0
    7.5440   22.8200   18.0010 C   0  0  0  0  0  0  0  0  0  0  0  0
    8.4060   22.0020   17.3560 O   0  0  0  0  0  0  0  0  0  0  0  0
    7.6710   21.0080   16.7890 C   0  0  0  0  0  0  0  0  0  0  0  0
    3.5470   15.9960   21.7050 H   0  0  0  0  0  0  0  0  0  0  0  0
    1.4060   15.2490   22.5420 H   0  0  0  0  0  0  0  0  0  0  0  0
    3.7240   17.0830   19.5590 H   0  0  0  0  0  0  0  0  0  0  0  0
   -0.6270   15.5150   21.1460 H   0  0  0  0  0  0  0  0  0  0  0  0
   -0.4550   16.5670   18.9540 H   0  0  0  0  0  0  0  0  0  0  0  0
    0.7920   18.1990   17.6280 H   0  0  0  0  0  0  0  0  0  0  0  0
    3.6910   18.2660   18.1540 H   0  0  0  0  0  0  0  0  0  0  0  0
    2.8700   16.2660   16.5870 H   0  0  0  0  0  0  0  0  0  0  0  0
    1.2530   15.8100   16.7930 H   0  0  0  0  0  0  0  0  0  0  0  0
   -0.2280   16.0210   16.2520 H   0  0  0  0  0  0  0  0  0  0  0  0
    4.4750   20.1510   18.6730 H   0  0  0  0  0  0  0  0  0  0  0  0
   -1.1260   17.7220   13.2450 H   0  0  0  0  0  0  0  0  0  0  0  0
    5.3480   19.3840   16.5910 H   0  0  0  0  0  0  0  0  0  0  0  0
    4.7340   20.8330   15.7550 H   0  0  0  0  0  0  0  0  0  0  0  0
    0.4750   19.1330   12.0680 H   0  0  0  0  0  0  0  0  0  0  0  0
    3.0110   22.3500   18.6160 H   0  0  0  0  0  0  0  0  0  0  0  0
    4.5730   20.5010   10.5680 H   0  0  0  0  0  0  0  0  0  0  0  0
    3.1370   21.0910    9.7210 H   0  0  0  0  0  0  0  0  0  0  0  0
    3.6620   21.8800   11.2150 H   0  0  0  0  0  0  0  0  0  0  0  0
    7.8990   23.6630   18.5240 H   0  0  0  0  0  0  0  0  0  0  0  0
    8.1480   20.2410   16.2360 H   0  0  0  0  0  0  0  0  0  0  0  0
  1  2  2  0  0  0  0
  1  3  1  0  0  0  0
  1 34  1  0  0  0  0
  2  4  1  0  0  0  0
  2 35  1  0  0  0  0
  3  6  2  0  0  0  0
  3 36  1  0  0  0  0
  4  5  2  0  0  0  0
  4 37  1  0  0  0  0
  5  6  1  0  0  0  0
  5 38  1  0  0  0  0
  6  7  1  0  0  0  0
  7  8  1  0  0  0  0
  7  9  1  0  0  0  0
  7 39  1  0  0  0  0
  8 10  1  0  0  0  0
  8 40  1  0  0  0  0
  9 11  1  0  0  0  0
  9 41  1  0  0  0  0
  9 42  1  0  0  0  0
 10 15  1  0  0  0  0
 10 20  2  0  0  0  0
 11 12  1  0  0  0  0
 11 14  1  0  0  0  0
 12 13  1  0  0  0  0
 12 21  2  0  0  0  0
 13 43  1  0  0  0  0
 14 16  2  0  0  0  0
 14 17  1  0  0  0  0
 15 23  1  0  0  0  0
 15 25  1  0  0  0  0
 15 44  1  0  0  0  0
 17 18  1  0  0  0  0
 17 24  2  0  0  0  0
 18 19  2  0  0  0  0
 18 22  1  0  0  0  0
 21 24  1  0  0  0  0
 21 45  1  0  0  0  0
 22 29  1  0  0  0  0
 23 27  1  0  0  0  0
 23 46  1  0  0  0  0
 23 47  1  0  0  0  0
 24 48  1  0  0  0  0
 25 26  1  0  0  0  0
 25 49  1  0  0  0  0
 26 28  2  0  0  0  0
 26 30  1  0  0  0  0
 27 30  1  0  0  0  0
 27 33  2  0  0  0  0
 29 50  1  0  0  0  0
 29 51  1  0  0  0  0
 29 52  1  0  0  0  0
 30 31  2  0  0  0  0
 31 32  1  0  0  0  0
 31 53  1  0  0  0  0
 32 33  1  0  0  0  0
 33 54  1  0  0  0  0
M  END
> <rseq>
1

> <mseq>
371

> <S>
-6.227507

> <rmsd_refine>
2.387378

> <E_conf>
-24.5668

> <E_score1>
-9.524512

> <E_refine>
-29.8619

> <E_score2>
-6.227507

>  <$File>
outputs/pdb_4j58_cleaned.pdb_2024_06_17__22_47_40_V2_BS398_MIN1_/SDF/sdf_db.sdf

> <Rec_index>
1

>  <PLIF_raw>
[28,1872,125,2,1.4]

> <FP:PLIF>
29

>  <PLIF_ligidx>
28

$$$$
371
  MOE2022           3D

 58 60  0  0  1  0  0  0  0  0999 V2000
    6.1500   14.4300   10.1060 C   0  0  0  0  0  0  0  0  0  0  0  0
    5.8400   15.7100    9.6590 C   0  0  0  0  0  0  0  0  0  0  0  0
    4.6020   16.2700    9.9520 C   0  0  0  0  0  0  0  0  0  0  0  0
    3.6540   15.5520   10.6930 C   0  0  0  0  0  0  0  0  0  0  0  0
    3.9740   14.2590   11.1270 C   0  0  0  0  0  0  0  0  0  0  0  0
    5.2160   13.7050   10.8360 C   0  0  0  0  0  0  0  0  0  0  0  0
    2.3390   16.1360   10.9530 C   0  0  0  0  0  0  0  0  0  0  0  0
    1.8300   16.2170   12.2470 N   0  0  0  0  0  0  0  0  0  0  0  0
    1.6550   16.5710   10.0290 O   0  0  0  0  0  0  0  0  0  0  0  0
    2.7010   16.1950   13.4450 C   0  0  0  0  0  0  0  0  0  0  0  0
    0.4830   16.7880   12.4770 C   0  0  0  0  0  0  0  0  0  0  0  0
    1.9850   15.6980   14.7140 C   0  0  0  0  0  0  0  0  0  0  0  0
   -0.1940   16.2670   13.7550 C   0  0  0  0  0  0  0  0  0  0  0  0
    0.6900   16.3640   14.9250 N   0  0  0  0  0  0  0  0  0  0  0  0
    0.2760   16.9240   16.1300 C   0  0  0  0  0  0  0  0  0  0  0  0
   -0.9130   17.2160   16.2560 O   0  0  0  0  0  0  0  0  0  0  0  0
    1.2380   17.1590   17.2000 C   0  0  0  0  0  0  0  0  0  0  0  0
    2.3230   18.0190   16.9900 C   0  0  0  0  0  0  0  0  0  0  0  0
    1.0870   16.5520   18.4650 C   0  0  0  0  0  0  0  0  0  0  0  0
   -0.0220   15.7400   18.7140 N   0  0  0  0  0  0  0  0  0  0  0  0
    2.0340   16.7560   19.4820 C   0  0  0  0  0  0  0  0  0  0  0  0
    3.1130   17.5980   19.2400 C   0  0  0  0  0  0  0  0  0  0  0  0
    3.2490   18.2450   18.0040 C   0  0  0  0  0  0  0  0  0  0  0  0
    4.3380   19.1250   17.6920 N   0  0  0  0  0  0  0  0  0  0  0  0
    5.2160   19.7770   18.5370 C   0  0  0  0  0  0  0  0  0  0  0  0
    1.8940   16.0840   20.8360 C   0  0  0  0  0  0  0  0  0  0  0  0
    5.0770   19.7670   19.7490 O   0  0  0  0  0  0  0  0  0  0  0  0
    6.3480   20.5140   17.8480 C   0  0  2  0  0  0  0  0  0  0  0  0
    7.5530   20.7910   18.7620 C   0  0  0  0  0  0  0  0  0  0  0  0
    5.8580   21.7720   17.1740 C   0  0  0  0  0  0  0  0  0  0  0  0
    5.8100   21.7600   15.9220 O   0  0  0  0  0  0  0  0  0  0  0  0
    5.5190   22.7330   17.8980 O   0  5  0  0  0  0  0  0  0  0  0  0
    8.0670   19.5940   19.3000 O   0  0  0  0  0  0  0  0  0  0  0  0
    7.0950   14.0040    9.8890 H   0  0  0  0  0  0  0  0  0  0  0  0
    6.5450   16.2530    9.0860 H   0  0  0  0  0  0  0  0  0  0  0  0
    4.3710   17.2440    9.6040 H   0  0  0  0  0  0  0  0  0  0  0  0
    3.2630   13.6950   11.6750 H   0  0  0  0  0  0  0  0  0  0  0  0
    5.4520   12.7260   11.1650 H   0  0  0  0  0  0  0  0  0  0  0  0
    3.5740   15.5820   13.2900 H   0  0  0  0  0  0  0  0  0  0  0  0
    3.0730   17.1950   13.6240 H   0  0  0  0  0  0  0  0  0  0  0  0
    0.5630   17.8650   12.5360 H   0  0  0  0  0  0  0  0  0  0  0  0
   -0.1710   16.5850   11.6400 H   0  0  0  0  0  0  0  0  0  0  0  0
    1.8120   14.6350   14.6140 H   0  0  0  0  0  0  0  0  0  0  0  0
    2.6430   15.7970   15.5650 H   0  0  0  0  0  0  0  0  0  0  0  0
   -1.1200   16.8060   13.9030 H   0  0  0  0  0  0  0  0  0  0  0  0
   -0.4770   15.2330   13.6100 H   0  0  0  0  0  0  0  0  0  0  0  0
    2.4370   18.5040   16.0550 H   0  0  0  0  0  0  0  0  0  0  0  0
   -0.3070   15.6870   19.7010 H   0  0  0  0  0  0  0  0  0  0  0  0
   -0.8050   15.8750   18.0530 H   0  0  0  0  0  0  0  0  0  0  0  0
    3.8300   17.7450   19.9990 H   0  0  0  0  0  0  0  0  0  0  0  0
    4.4890   19.3140   16.6890 H   0  0  0  0  0  0  0  0  0  0  0  0
    2.7990   16.2050   21.4320 H   0  0  0  0  0  0  0  0  0  0  0  0
    1.0590   16.5180   21.3870 H   0  0  0  0  0  0  0  0  0  0  0  0
    1.7150   15.0160   20.7170 H   0  0  0  0  0  0  0  0  0  0  0  0
    6.7090   19.8690   17.0610 H   0  0  0  0  0  0  0  0  0  0  0  0
    8.3420   21.2830   18.1910 H   0  0  0  0  0  0  0  0  0  0  0  0
    7.2620   21.4520   19.5800 H   0  0  0  0  0  0  0  0  0  0  0  0
    7.3830   19.1970   19.8460 H   0  0  0  0  0  0  0  0  0  0  0  0
  1  2  2  0  0  0  0
  1  6  1  0  0  0  0
  1 34  1  0  0  0  0
  2  3  1  0  0  0  0
  2 35  1  0  0  0  0
  3  4  2  0  0  0  0
  3 36  1  0  0  0  0
  4  5  1  0  0  0  0
  4  7  1  0  0  0  0
  5  6  2  0  0  0  0
  5 37  1  0  0  0  0
  6 38  1  0  0  0  0
  7  8  1  0  0  0  0
  7  9  2  0  0  0  0
  8 10  1  0  0  0  0
  8 11  1  0  0  0  0
 10 12  1  0  0  0  0
 10 39  1  0  0  0  0
 10 40  1  0  0  0  0
 11 13  1  0  0  0  0
 11 41  1  0  0  0  0
 11 42  1  0  0  0  0
 12 14  1  0  0  0  0
 12 43  1  0  0  0  0
 12 44  1  0  0  0  0
 13 14  1  0  0  0  0
 13 45  1  0  0  0  0
 13 46  1  0  0  0  0
 14 15  1  0  0  0  0
 15 16  2  0  0  0  0
 15 17  1  0  0  0  0
 17 18  2  0  0  0  0
 17 19  1  0  0  0  0
 18 23  1  0  0  0  0
 18 47  1  0  0  0  0
 19 20  1  0  0  0  0
 19 21  2  0  0  0  0
 20 48  1  0  0  0  0
 20 49  1  0  0  0  0
 21 22  1  0  0  0  0
 21 26  1  0  0  0  0
 22 23  2  0  0  0  0
 22 50  1  0  0  0  0
 23 24  1  0  0  0  0
 24 25  1  0  0  0  0
 24 51  1  0  0  0  0
 25 27  2  0  0  0  0
 25 28  1  0  0  0  0
 26 52  1  0  0  0  0
 26 53  1  0  0  0  0
 26 54  1  0  0  0  0
 28 29  1  0  0  0  0
 28 30  1  0  0  0  0
 28 55  1  0  0  0  0
 29 33  1  0  0  0  0
 29 56  1  0  0  0  0
 29 57  1  0  0  0  0
 30 31  2  0  0  0  0
 30 32  1  0  0  0  0
 33 58  1  0  0  0  0
M  CHG  1  32  -1
M  END
> <rseq>
1

> <mseq>
372

> <S>
-7.131872

> <rmsd_refine>
1.099235

> <E_conf>
-142.07

> <E_score1>
-11.14173

> <E_refine>
-39.70972

> <E_score2>
-7.131872

>  <$File>
outputs/pdb_4j58_cleaned.pdb_2024_06_17__22_47_40_V2_BS398_MIN1_/SDF/sdf_db.sdf

> <Rec_index>
1

>  <PLIF_raw>
[[27,31,31,1,6,5,4,3,2],[1499,826,826,820,820,820,820,820,820],[101,54,54,54,54,54,54,54,54],[4,2,7,10,10,10,10,10,10],[2.3,0.6,1.958432369,0.6,0.6,0.6,0.6,0.6,0.6]]

> <FP:PLIF>
6 1 2 11 12

>  <PLIF_ligidx>
[31,31,[1,6,5,4,3,2],27,27]

$$$$
372
  MOE2022           3D

 60 62  0  0  1  0  0  0  0  0999 V2000
    3.6090   17.8740   19.1910 O   0  0  0  0  0  0  0  0  0  0  0  0
    2.6640   17.3960   18.5530 C   0  0  0  0  0  0  0  0  0  0  0  0
    1.6110   16.6130   19.1450 C   0  0  0  0  0  0  0  0  0  0  0  0
    2.6080   17.6020   17.1650 N   0  0  0  0  0  0  0  0  0  0  0  0
    0.6180   16.1260   18.3520 C   0  0  0  0  0  0  0  0  0  0  0  0
    1.6210   16.9500   16.4040 C   0  0  0  0  0  0  0  0  0  0  0  0
    0.6590   16.2990   16.9900 N   0  0  0  0  0  0  0  0  0  0  0  0
    1.7180   16.9460   14.9530 C   0  0  0  0  0  0  0  0  0  0  0  0
    3.5830   18.5230   16.5040 C   0  0  0  0  0  0  0  0  0  0  0  0
    1.6370   16.3340   20.6400 C   0  0  0  0  0  0  0  0  0  0  0  0
   -0.5470   15.3140   18.8810 C   0  0  0  0  0  0  0  0  0  0  0  0
    3.1290   20.0000   16.4000 C   0  0  1  0  0  0  0  0  0  0  0  0
    3.1190   20.7270   17.7560 C   0  0  0  0  0  0  0  0  0  0  0  0
    1.0870   17.9240   14.1700 C   0  0  0  0  0  0  0  0  0  0  0  0
    4.0630   20.8630   15.5630 C   0  0  0  0  0  0  0  0  0  0  0  0
    1.0950   17.8270   12.7830 C   0  0  0  0  0  0  0  0  0  0  0  0
    1.7330   16.7430   12.1770 C   0  0  0  0  0  0  0  0  0  0  0  0
    4.4420   20.5700   14.4320 O   0  0  0  0  0  0  0  0  0  0  0  0
    2.3960   15.8930   14.3190 C   0  0  0  0  0  0  0  0  0  0  0  0
    3.6500   22.1370   17.4590 C   0  0  1  0  0  0  0  0  0  0  0  0
    2.4020   15.7850   12.9360 C   0  0  0  0  0  0  0  0  0  0  0  0
    4.4840   22.7230   18.6200 C   0  0  0  0  0  0  0  0  0  0  0  0
    4.0270   23.7280   19.2090 O   0  0  0  0  0  0  0  0  0  0  0  0
    4.3940   21.9690   16.2200 N   0  0  0  0  0  0  0  0  0  0  0  0
    5.5620   22.1610   18.9180 O   0  5  0  0  0  0  0  0  0  0  0  0
    1.6750   16.5810   10.8210 O   0  0  0  0  0  0  0  0  0  0  0  0
    2.4050   17.4670    9.9430 C   0  0  0  0  0  0  0  0  0  0  0  0
    3.8620   17.0650    9.7990 C   0  0  0  0  0  0  0  0  0  0  0  0
    4.7180   17.7110   10.3980 O   0  0  0  0  0  0  0  0  0  0  0  0
    4.1880   15.9810    9.0550 N   0  0  0  0  0  0  0  0  0  0  0  0
    3.1740   15.1320    8.4160 C   0  0  0  0  0  0  0  0  0  0  0  0
    5.5790   15.5090    8.9670 C   0  0  0  0  0  0  0  0  0  0  0  0
    5.9170   14.4380   10.0090 C   0  0  0  0  0  0  0  0  0  0  0  0
    4.5370   18.4970   17.0120 H   0  0  0  0  0  0  0  0  0  0  0  0
    3.8260   18.1660   15.5130 H   0  0  0  0  0  0  0  0  0  0  0  0
    0.8510   16.8730   21.1490 H   0  0  0  0  0  0  0  0  0  0  0  0
    1.4990   15.2810   20.8400 H   0  0  0  0  0  0  0  0  0  0  0  0
    2.5770   16.6070   21.0980 H   0  0  0  0  0  0  0  0  0  0  0  0
   -0.9380   15.7180   19.8040 H   0  0  0  0  0  0  0  0  0  0  0  0
   -1.3670   15.2890   18.1760 H   0  0  0  0  0  0  0  0  0  0  0  0
   -0.2530   14.2900   19.0650 H   0  0  0  0  0  0  0  0  0  0  0  0
    2.1340   20.0410   15.9590 H   0  0  0  0  0  0  0  0  0  0  0  0
    2.1120   20.7680   18.1680 H   0  0  0  0  0  0  0  0  0  0  0  0
    3.8070   20.2390   18.4450 H   0  0  0  0  0  0  0  0  0  0  0  0
    0.5820   18.7290   14.6380 H   0  0  0  0  0  0  0  0  0  0  0  0
    0.6030   18.5550   12.1920 H   0  0  0  0  0  0  0  0  0  0  0  0
    2.8890   15.1610   14.9050 H   0  0  0  0  0  0  0  0  0  0  0  0
    2.8050   22.7980   17.2630 H   0  0  0  0  0  0  0  0  0  0  0  0
    2.8960   14.9770   12.4610 H   0  0  0  0  0  0  0  0  0  0  0  0
    5.0090   22.6820   15.8580 H   0  0  0  0  0  0  0  0  0  0  0  0
    1.9120   17.4630    8.9810 H   0  0  0  0  0  0  0  0  0  0  0  0
    2.3290   18.4780   10.3200 H   0  0  0  0  0  0  0  0  0  0  0  0
    2.5540   14.6390    9.1530 H   0  0  0  0  0  0  0  0  0  0  0  0
    2.5280   15.7010    7.7630 H   0  0  0  0  0  0  0  0  0  0  0  0
    3.6220   14.3550    7.8110 H   0  0  0  0  0  0  0  0  0  0  0  0
    5.7670   15.1190    7.9760 H   0  0  0  0  0  0  0  0  0  0  0  0
    6.2680   16.3360    9.0680 H   0  0  0  0  0  0  0  0  0  0  0  0
    6.9660   14.1500    9.9350 H   0  0  0  0  0  0  0  0  0  0  0  0
    5.7330   14.8150   11.0130 H   0  0  0  0  0  0  0  0  0  0  0  0
    5.3050   13.5480    9.8590 H   0  0  0  0  0  0  0  0  0  0  0  0
  1  2  2  0  0  0  0
  2  3  1  0  0  0  0
  2  4  1  0  0  0  0
  3  5  2  0  0  0  0
  3 10  1  0  0  0  0
  4  6  1  0  0  0  0
  4  9  1  0  0  0  0
  5  7  1  0  0  0  0
  5 11  1  0  0  0  0
  6  7  2  0  0  0  0
  6  8  1  0  0  0  0
  8 14  1  0  0  0  0
  8 19  2  0  0  0  0
  9 12  1  0  0  0  0
  9 34  1  0  0  0  0
  9 35  1  0  0  0  0
 10 36  1  0  0  0  0
 10 37  1  0  0  0  0
 10 38  1  0  0  0  0
 11 39  1  0  0  0  0
 11 40  1  0  0  0  0
 11 41  1  0  0  0  0
 12 13  1  0  0  0  0
 12 15  1  0  0  0  0
 12 42  1  0  0  0  0
 13 20  1  0  0  0  0
 13 43  1  0  0  0  0
 13 44  1  0  0  0  0
 14 16  2  0  0  0  0
 14 45  1  0  0  0  0
 15 18  2  0  0  0  0
 15 24  1  0  0  0  0
 16 17  1  0  0  0  0
 16 46  1  0  0  0  0
 17 21  2  0  0  0  0
 17 26  1  0  0  0  0
 19 21  1  0  0  0  0
 19 47  1  0  0  0  0
 20 22  1  0  0  0  0
 20 24  1  0  0  0  0
 20 48  1  0  0  0  0
 21 49  1  0  0  0  0
 22 23  2  0  0  0  0
 22 25  1  0  0  0  0
 24 50  1  0  0  0  0
 26 27  1  0  0  0  0
 27 28  1  0  0  0  0
 27 51  1  0  0  0  0
 27 52  1  0  0  0  0
 28 29  2  0  0  0  0
 28 30  1  0  0  0  0
 30 31  1  0  0  0  0
 30 32  1  0  0  0  0
 31 53  1  0  0  0  0
 31 54  1  0  0  0  0
 31 55  1  0  0  0  0
 32 33  1  0  0  0  0
 32 56  1  0  0  0  0
 32 57  1  0  0  0  0
 33 58  1  0  0  0  0
 33 59  1  0  0  0  0
 33 60  1  0  0  0  0
M  CHG  1  25  -1
M  END
> <rseq>
1

> <mseq>
373

> <S>
-6.197202

> <rmsd_refine>
1.187766

> <E_conf>
-63.889

> <E_score1>
-10.44157

> <E_refine>
-33.95918

> <E_score2>
-6.197202

>  <$File>
outputs/pdb_4j58_cleaned.pdb_2024_06_17__22_47_40_V2_BS398_MIN1_/SDF/sdf_db.sdf

> <Rec_index>
1

>  <PLIF_raw>
[[23,29,23,25,2,4,6,7,5,3],[1872,823,1872,1872,954,954,954,954,954,954],[125,54,125,125,62,62,62,62,62,62],[2,2,7,7,10,10,10,10,10,10],[2.6,1.3,3.367780802,1.631825929,0.8,0.8,0.8,0.8,0.8,0.8]]

> <FP:PLIF>
6 21 29 46 13

>  <PLIF_ligidx>
[29,[2,4,6,7,5,3],23,23,[23,25]]

$$$$
373
  MOE2022           3D

 52 54  0  0  1  0  0  0  0  0999 V2000
    2.2520   16.4450   20.2050 C   0  0  0  0  0  0  0  0  0  0  0  0
    0.9720   15.9430   20.4010 C   0  0  0  0  0  0  0  0  0  0  0  0
    2.6000   17.0070   18.9810 C   0  0  0  0  0  0  0  0  0  0  0  0
    0.0420   16.0020   19.3700 C   0  0  0  0  0  0  0  0  0  0  0  0
    0.3900   16.5700   18.1470 C   0  0  0  0  0  0  0  0  0  0  0  0
    1.6730   17.0800   17.9370 C   0  0  0  0  0  0  0  0  0  0  0  0
    2.0070   17.7000   16.5770 C   0  0  1  0  0  0  0  0  0  0  0  0
    3.2380   18.5140   16.5830 N   0  0  0  0  0  0  0  0  0  0  0  0
    2.0180   16.6270   15.4580 C   0  0  0  0  0  0  0  0  0  0  0  0
    3.3120   19.7610   17.1610 C   0  0  0  0  0  0  0  0  0  0  0  0
    2.4280   17.0140   14.0620 N   0  0  0  0  0  0  0  0  0  0  0  0
    2.1560   18.2670   13.5070 C   0  0  0  0  0  0  0  0  0  0  0  0
    1.3770   19.0270   14.1000 O   0  0  0  0  0  0  0  0  0  0  0  0
    3.0190   16.0590   13.2150 C   0  0  0  0  0  0  0  0  0  0  0  0
    4.5900   20.4480   17.1740 C   0  0  0  0  0  0  0  0  0  0  0  0
    3.0550   14.7840   13.7020 O   0  0  0  0  0  0  0  0  0  0  0  0
    3.5210   16.4000   11.9770 C   0  0  0  0  0  0  0  0  0  0  0  0
    4.1770   15.4090   11.1190 C   0  0  0  0  0  0  0  0  0  0  0  0
    3.7820   14.2080   11.1090 O   0  0  0  0  0  0  0  0  0  0  0  0
    2.3080   20.2400   17.6810 O   0  0  0  0  0  0  0  0  0  0  0  0
    2.7970   18.6220   12.2440 C   0  0  0  0  0  0  0  0  0  0  0  0
    5.1890   15.7390   10.4320 O   0  5  0  0  0  0  0  0  0  0  0  0
    2.7320   19.8350   11.8410 O   0  0  0  0  0  0  0  0  0  0  0  0
    3.4460   17.7210   11.5250 N   0  5  0  0  0  0  0  0  0  0  0  0
    5.2260   20.6140   18.5470 C   0  0  0  0  0  0  0  0  0  0  0  0
    5.1380   20.9950   16.0450 C   0  0  0  0  0  0  0  0  0  0  0  0
    4.3810   20.9270   14.7130 C   0  0  0  0  0  0  0  0  0  0  0  0
    4.9120   19.5520   19.4480 O   0  0  0  0  0  0  0  0  0  0  0  0
    4.8030   21.8360   19.1520 O   0  0  0  0  0  0  0  0  0  0  0  0
    6.4170   21.6940   16.0440 C   0  0  0  0  0  0  0  0  0  0  0  0
    6.9230   22.2950   14.9400 C   0  0  0  0  0  0  0  0  0  0  0  0
    6.2120   22.2950   13.6860 C   0  0  0  0  0  0  0  0  0  0  0  0
    5.0250   21.6730   13.5600 C   0  0  0  0  0  0  0  0  0  0  0  0
    2.9650   16.3990   20.9870 H   0  0  0  0  0  0  0  0  0  0  0  0
    0.7080   15.5200   21.3330 H   0  0  0  0  0  0  0  0  0  0  0  0
    3.5770   17.3840   18.8560 H   0  0  0  0  0  0  0  0  0  0  0  0
   -0.9350   15.6190   19.5140 H   0  0  0  0  0  0  0  0  0  0  0  0
   -0.3310   16.6160   17.3710 H   0  0  0  0  0  0  0  0  0  0  0  0
    1.1850   18.3680   16.3620 H   0  0  0  0  0  0  0  0  0  0  0  0
    4.0710   18.1270   16.1160 H   0  0  0  0  0  0  0  0  0  0  0  0
    2.6700   15.8420   15.8160 H   0  0  0  0  0  0  0  0  0  0  0  0
    1.0420   16.1650   15.4120 H   0  0  0  0  0  0  0  0  0  0  0  0
    3.4000   14.1920   12.9980 H   0  0  0  0  0  0  0  0  0  0  0  0
    6.3040   20.6370   18.4760 H   0  0  0  0  0  0  0  0  0  0  0  0
    4.2610   19.8940   14.4230 H   0  0  0  0  0  0  0  0  0  0  0  0
    3.3770   21.3060   14.8480 H   0  0  0  0  0  0  0  0  0  0  0  0
    3.9460   19.5040   19.5570 H   0  0  0  0  0  0  0  0  0  0  0  0
    3.8430   21.9350   19.0260 H   0  0  0  0  0  0  0  0  0  0  0  0
    6.9720   21.7390   16.9430 H   0  0  0  0  0  0  0  0  0  0  0  0
    7.8570   22.7920   14.9820 H   0  0  0  0  0  0  0  0  0  0  0  0
    6.6470   22.8040   12.8640 H   0  0  0  0  0  0  0  0  0  0  0  0
    4.4960   21.6740   12.6420 H   0  0  0  0  0  0  0  0  0  0  0  0
  1  2  2  0  0  0  0
  1  3  1  0  0  0  0
  1 34  1  0  0  0  0
  2  4  1  0  0  0  0
  2 35  1  0  0  0  0
  3  6  2  0  0  0  0
  3 36  1  0  0  0  0
  4  5  2  0  0  0  0
  4 37  1  0  0  0  0
  5  6  1  0  0  0  0
  5 38  1  0  0  0  0
  6  7  1  0  0  0  0
  7  8  1  0  0  0  0
  7  9  1  0  0  0  0
  7 39  1  0  0  0  0
  8 10  1  0  0  0  0
  8 40  1  0  0  0  0
  9 11  1  0  0  0  0
  9 41  1  0  0  0  0
  9 42  1  0  0  0  0
 10 15  1  0  0  0  0
 10 20  2  0  0  0  0
 11 12  1  0  0  0  0
 11 14  1  0  0  0  0
 12 13  2  0  0  0  0
 12 21  1  0  0  0  0
 14 16  1  0  0  0  0
 14 17  2  0  0  0  0
 15 25  1  0  0  0  0
 15 26  2  0  0  0  0
 16 43  1  0  0  0  0
 17 18  1  0  0  0  0
 17 24  1  0  0  0  0
 18 19  2  0  0  0  0
 18 22  1  0  0  0  0
 21 23  2  0  0  0  0
 21 24  1  0  0  0  0
 25 28  1  0  0  0  0
 25 29  1  0  0  0  0
 25 44  1  0  0  0  0
 26 27  1  0  0  0  0
 26 30  1  0  0  0  0
 27 33  1  0  0  0  0
 27 45  1  0  0  0  0
 27 46  1  0  0  0  0
 28 47  1  0  0  0  0
 29 48  1  0  0  0  0
 30 31  2  0  0  0  0
 30 49  1  0  0  0  0
 31 32  1  0  0  0  0
 31 50  1  0  0  0  0
 32 33  2  0  0  0  0
 32 51  1  0  0  0  0
 33 52  1  0  0  0  0
M  CHG  1  22  -1
M  CHG  1  24  -1
M  END
> <rseq>
1

> <mseq>
374

> <S>
-6.065909

> <rmsd_refine>
1.278104

> <E_conf>
-106.6041

> <E_score1>
-12.23663

> <E_refine>
-38.70769

> <E_score2>
-6.065909

>  <$File>
outputs/pdb_4j58_cleaned.pdb_2024_06_17__22_47_40_V2_BS398_MIN1_/SDF/sdf_db.sdf

> <Rec_index>
1

>  <PLIF_raw>
[[28,22,22,24,24,1,3,6,5,4,2],[1504,823,823,823,829,1519,1519,1519,1519,1519,1519],[101,54,54,54,54,102,102,102,102,102,102],[3,2,7,7,7,10,10,10,10,10,10],[1.7,3.9,4.412627915,2.823741239,1.14790881,0.6,0.6,0.6,0.6,0.6,0.6]]

> <FP:PLIF>
6 19 1 16 8 10 22

>  <PLIF_ligidx>
[22,22,[22,24,24],22,28,28,[1,3,6,5,4,2]]

$$$$
374
  MOE2022           3D

 62 64  0  0  1  0  0  0  0  0999 V2000
    7.0670   20.9310   19.4110 C   0  0  0  0  0  0  0  0  0  0  0  0
    6.2150   19.8730   19.1130 C   0  0  0  0  0  0  0  0  0  0  0  0
    4.9290   20.1320   18.6410 C   0  0  0  0  0  0  0  0  0  0  0  0
    4.1270   19.0440   18.3140 O   0  0  0  0  0  0  0  0  0  0  0  0
    3.0120   19.0730   17.3560 C   0  0  1  0  0  0  0  0  0  0  0  0
    4.4840   21.4490   18.4910 C   0  0  0  0  0  0  0  0  0  0  0  0
    6.6340   22.2440   19.2470 C   0  0  0  0  0  0  0  0  0  0  0  0
    5.3430   22.5010   18.7910 C   0  0  0  0  0  0  0  0  0  0  0  0
    3.5190   19.2420   15.9220 C   0  0  0  0  0  0  0  0  0  0  0  0
    4.3160   20.1480   15.6750 O   0  0  0  0  0  0  0  0  0  0  0  0
    2.0890   17.8560   17.5720 C   0  0  2  0  0  0  0  0  0  0  0  0
    3.0280   18.4660   14.9250 N   0  0  0  0  0  0  0  0  0  0  0  0
    1.1310   17.6390   16.3770 C   0  0  2  0  0  0  0  0  0  0  0  0
    2.0710   17.3540   15.1700 C   0  0  1  0  0  0  0  0  0  0  0  0
    1.3780   18.0160   18.7860 O   0  0  0  0  0  0  0  0  0  0  0  0
    3.3870   18.7550   13.5270 C   0  0  0  0  0  0  0  0  0  0  0  0
    0.3160   18.8550   16.1150 N   0  0  0  0  0  0  0  0  0  0  0  0
    0.1980   16.4420   16.6820 C   0  0  0  0  0  0  0  0  0  0  0  0
   -0.8550   16.3060   15.7460 O   0  0  0  0  0  0  0  0  0  0  0  0
    1.3480   17.0200   13.9280 O   0  0  0  0  0  0  0  0  0  0  0  0
    1.2470   15.6020   13.5150 C   0  0  2  0  0  0  0  0  0  0  0  0
    2.6210   14.9630   13.1950 C   0  0  0  0  0  0  0  0  0  0  0  0
    0.2320   15.4440   12.3880 C   0  0  0  0  0  0  0  0  0  0  0  0
   -0.7830   14.7640   12.5050 O   0  0  0  0  0  0  0  0  0  0  0  0
    2.9630   14.7700   11.7050 C   0  0  2  0  0  0  0  0  0  0  0  0
    0.4690   15.9980   11.1780 O   0  0  0  0  0  0  0  0  0  0  0  0
    1.6230   16.8280   10.8720 C   0  0  0  0  0  0  0  0  0  0  0  0
    4.2480   14.1850   11.6560 O   0  0  0  0  0  0  0  0  0  0  0  0
    2.9700   16.0780   10.8830 C   0  0  2  0  0  0  0  0  0  0  0  0
    3.3770   15.8060    9.5060 N   0  0  0  0  0  0  0  0  0  0  0  0
    4.6230   15.9980    9.0520 C   0  0  0  0  0  0  0  0  0  0  0  0
    5.5530   16.3780    9.7630 O   0  0  0  0  0  0  0  0  0  0  0  0
    4.8620   15.7140    7.5760 C   0  0  0  0  0  0  0  0  0  0  0  0
    8.0490   20.7390   19.7560 H   0  0  0  0  0  0  0  0  0  0  0  0
    6.5500   18.8780   19.2300 H   0  0  0  0  0  0  0  0  0  0  0  0
    2.4150   19.9450   17.5840 H   0  0  0  0  0  0  0  0  0  0  0  0
    3.5050   21.6590   18.1490 H   0  0  0  0  0  0  0  0  0  0  0  0
    7.2880   23.0460   19.4680 H   0  0  0  0  0  0  0  0  0  0  0  0
    5.0160   23.5020   18.6690 H   0  0  0  0  0  0  0  0  0  0  0  0
    2.7250   16.9750   17.6700 H   0  0  0  0  0  0  0  0  0  0  0  0
    2.6550   16.4800   15.4270 H   0  0  0  0  0  0  0  0  0  0  0  0
    1.9770   18.3760   19.4460 H   0  0  0  0  0  0  0  0  0  0  0  0
    4.1370   19.5240   13.4180 H   0  0  0  0  0  0  0  0  0  0  0  0
    3.7750   17.8730   13.0450 H   0  0  0  0  0  0  0  0  0  0  0  0
    2.5260   19.0970   12.9690 H   0  0  0  0  0  0  0  0  0  0  0  0
    0.9150   19.6320   15.8750 H   0  0  0  0  0  0  0  0  0  0  0  0
   -0.2260   19.0820   16.9380 H   0  0  0  0  0  0  0  0  0  0  0  0
    0.7800   15.5260   16.7030 H   0  0  0  0  0  0  0  0  0  0  0  0
   -0.2640   16.5750   17.6600 H   0  0  0  0  0  0  0  0  0  0  0  0
   -1.2570   17.1700   15.6190 H   0  0  0  0  0  0  0  0  0  0  0  0
    0.8550   15.0710   14.3710 H   0  0  0  0  0  0  0  0  0  0  0  0
    3.4180   15.5320   13.6710 H   0  0  0  0  0  0  0  0  0  0  0  0
    2.6110   13.9710   13.6470 H   0  0  0  0  0  0  0  0  0  0  0  0
    2.2540   14.0710   11.2590 H   0  0  0  0  0  0  0  0  0  0  0  0
    1.4690   17.2810    9.8920 H   0  0  0  0  0  0  0  0  0  0  0  0
    1.6610   17.6460   11.5860 H   0  0  0  0  0  0  0  0  0  0  0  0
    4.2420   13.3660   12.1630 H   0  0  0  0  0  0  0  0  0  0  0  0
    3.7040   16.7480   11.3240 H   0  0  0  0  0  0  0  0  0  0  0  0
    2.6690   15.4710    8.8700 H   0  0  0  0  0  0  0  0  0  0  0  0
    4.1390   16.2650    6.9750 H   0  0  0  0  0  0  0  0  0  0  0  0
    5.8700   16.0250    7.2990 H   0  0  0  0  0  0  0  0  0  0  0  0
    4.7450   14.6470    7.3880 H   0  0  0  0  0  0  0  0  0  0  0  0
  1  2  1  0  0  0  0
  1  7  2  0  0  0  0
  1 34  1  0  0  0  0
  2  3  2  0  0  0  0
  2 35  1  0  0  0  0
  3  4  1  0  0  0  0
  3  6  1  0  0  0  0
  4  5  1  0  0  0  0
  5  9  1  0  0  0  0
  5 11  1  0  0  0  0
  5 36  1  0  0  0  0
  6  8  2  0  0  0  0
  6 37  1  0  0  0  0
  7  8  1  0  0  0  0
  7 38  1  0  0  0  0
  8 39  1  0  0  0  0
  9 10  2  0  0  0  0
  9 12  1  0  0  0  0
 11 13  1  0  0  0  0
 11 15  1  0  0  0  0
 11 40  1  0  0  0  0
 12 14  1  0  0  0  0
 12 16  1  0  0  0  0
 13 14  1  0  0  0  0
 13 17  1  0  0  0  0
 13 18  1  0  0  0  0
 14 20  1  0  0  0  0
 14 41  1  0  0  0  0
 15 42  1  0  0  0  0
 16 43  1  0  0  0  0
 16 44  1  0  0  0  0
 16 45  1  0  0  0  0
 17 46  1  0  0  0  0
 17 47  1  0  0  0  0
 18 19  1  0  0  0  0
 18 48  1  0  0  0  0
 18 49  1  0  0  0  0
 19 50  1  0  0  0  0
 20 21  1  0  0  0  0
 21 22  1  0  0  0  0
 21 23  1  0  0  0  0
 21 51  1  0  0  0  0
 22 25  1  0  0  0  0
 22 52  1  0  0  0  0
 22 53  1  0  0  0  0
 23 24  2  0  0  0  0
 23 26  1  0  0  0  0
 25 28  1  0  0  0  0
 25 29  1  0  0  0  0
 25 54  1  0  0  0  0
 26 27  1  0  0  0  0
 27 29  1  0  0  0  0
 27 55  1  0  0  0  0
 27 56  1  0  0  0  0
 28 57  1  0  0  0  0
 29 30  1  0  0  0  0
 29 58  1  0  0  0  0
 30 31  1  0  0  0  0
 30 59  1  0  0  0  0
 31 32  2  0  0  0  0
 31 33  1  0  0  0  0
 33 60  1  0  0  0  0
 33 61  1  0  0  0  0
 33 62  1  0  0  0  0
M  END
> <rseq>
1

> <mseq>
375

> <S>
-6.185157

> <rmsd_refine>
1.658221

> <E_conf>
90.36

> <E_score1>
-11.17356

> <E_refine>
-37.04901

> <E_score2>
-6.185157

>  <$File>
outputs/pdb_4j58_cleaned.pdb_2024_06_17__22_47_40_V2_BS398_MIN1_/SDF/sdf_db.sdf

> <Rec_index>
1

>  <PLIF_raw>
[[15,28,32],[1504,1056,823],[101,70,54],[3,3,2],[0.5,2.4,3.7]]

> <FP:PLIF>
6 19 3 4 8

>  <PLIF_ligidx>
[32,32,28,28,15]

$$$$
375
  MOE2022           3D

 55 57  0  0  1  0  0  0  0  0999 V2000
    3.3420   17.4690   19.2810 O   0  0  0  0  0  0  0  0  0  0  0  0
    2.4460   17.7110   18.4760 C   0  0  0  0  0  0  0  0  0  0  0  0
    2.6410   18.6980   17.5420 N   0  0  0  0  0  0  0  0  0  0  0  0
    1.1770   16.9760   18.4430 C   0  0  0  0  0  0  0  0  0  0  0  0
    0.0970   17.4050   17.6520 C   0  0  0  0  0  0  0  0  0  0  0  0
   -1.0810   16.6690   17.6000 C   0  0  0  0  0  0  0  0  0  0  0  0
    1.0300   15.7990   19.1910 C   0  0  0  0  0  0  0  0  0  0  0  0
    3.9260   19.3040   17.1900 C   0  0  1  0  0  0  0  0  0  0  0  0
   -0.1480   15.0640   19.1300 C   0  0  0  0  0  0  0  0  0  0  0  0
   -1.2040   15.4970   18.3360 C   0  0  0  0  0  0  0  0  0  0  0  0
    3.9260   19.7270   15.7160 C   0  0  0  0  0  0  0  0  0  0  0  0
    3.5690   18.8180   14.7030 C   0  0  0  0  0  0  0  0  0  0  0  0
    3.3120   17.5040   14.9930 O   0  0  0  0  0  0  0  0  0  0  0  0
    3.4690   19.2030   13.3690 C   0  0  0  0  0  0  0  0  0  0  0  0
    3.7660   20.5190   13.0290 C   0  0  0  0  0  0  0  0  0  0  0  0
    4.2540   20.4450   18.1690 C   0  0  0  0  0  0  0  0  0  0  0  0
    3.6260   20.9920   11.7360 O   0  0  0  0  0  0  0  0  0  0  0  0
    4.1850   21.4250   14.0020 C   0  0  0  0  0  0  0  0  0  0  0  0
    5.3190   21.4110   17.6460 C   0  0  1  0  0  0  0  0  0  0  0  0
    4.2810   21.0330   15.3400 C   0  0  0  0  0  0  0  0  0  0  0  0
    3.9940   20.4170   10.4390 C   0  0  0  0  0  0  0  0  0  0  0  0
    4.7530   22.0510   16.3680 C   0  0  0  0  0  0  0  0  0  0  0  0
    3.4410   19.0370   10.1420 C   0  0  0  0  0  0  0  0  0  0  0  0
    5.7040   22.4390   18.7220 C   0  0  0  0  0  0  0  0  0  0  0  0
    2.2460   18.8580    9.9110 O   0  0  0  0  0  0  0  0  0  0  0  0
    4.3370   18.0400   10.1240 N   0  0  0  0  0  0  0  0  0  0  0  0
    6.8000   22.2730   19.3000 O   0  0  0  0  0  0  0  0  0  0  0  0
    4.8940   23.3560   18.9870 O   0  5  0  0  0  0  0  0  0  0  0  0
    4.0710   16.6610    9.7160 C   0  0  1  0  0  0  0  0  0  0  0  0
    5.3750   15.9830    9.2540 C   0  0  0  0  0  0  0  0  0  0  0  0
    5.4110   15.5400    8.0850 O   0  5  0  0  0  0  0  0  0  0  0  0
    6.3220   15.9310   10.0730 O   0  0  0  0  0  0  0  0  0  0  0  0
    3.4260   15.8900   10.8770 C   0  0  0  0  0  0  0  0  0  0  0  0
    1.8690   18.9080   16.8950 H   0  0  0  0  0  0  0  0  0  0  0  0
    0.1650   18.2960   17.0830 H   0  0  0  0  0  0  0  0  0  0  0  0
   -1.8860   17.0020   16.9970 H   0  0  0  0  0  0  0  0  0  0  0  0
    1.8280   15.4550   19.7980 H   0  0  0  0  0  0  0  0  0  0  0  0
    4.7000   18.5600   17.2930 H   0  0  0  0  0  0  0  0  0  0  0  0
   -0.2430   14.1650   19.6780 H   0  0  0  0  0  0  0  0  0  0  0  0
   -2.1000   14.9330   18.2900 H   0  0  0  0  0  0  0  0  0  0  0  0
    3.0580   17.0150   14.1860 H   0  0  0  0  0  0  0  0  0  0  0  0
    3.1580   18.5050   12.6390 H   0  0  0  0  0  0  0  0  0  0  0  0
    3.3440   21.0160   18.3630 H   0  0  0  0  0  0  0  0  0  0  0  0
    4.5920   20.0100   19.1100 H   0  0  0  0  0  0  0  0  0  0  0  0
    4.4220   22.4190   13.7230 H   0  0  0  0  0  0  0  0  0  0  0  0
    6.2100   20.8380   17.3840 H   0  0  0  0  0  0  0  0  0  0  0  0
    3.6440   21.1000    9.6770 H   0  0  0  0  0  0  0  0  0  0  0  0
    5.0710   20.4220   10.3590 H   0  0  0  0  0  0  0  0  0  0  0  0
    3.9050   22.6890   16.6240 H   0  0  0  0  0  0  0  0  0  0  0  0
    5.5260   22.6800   15.9250 H   0  0  0  0  0  0  0  0  0  0  0  0
    5.3080   18.2610   10.2830 H   0  0  0  0  0  0  0  0  0  0  0  0
    3.3750   16.6660    8.8760 H   0  0  0  0  0  0  0  0  0  0  0  0
    3.2510   14.8570   10.5730 H   0  0  0  0  0  0  0  0  0  0  0  0
    4.0820   15.8980   11.7460 H   0  0  0  0  0  0  0  0  0  0  0  0
    2.4720   16.3460   11.1410 H   0  0  0  0  0  0  0  0  0  0  0  0
  1  2  2  0  0  0  0
  2  3  1  0  0  0  0
  2  4  1  0  0  0  0
  3  8  1  0  0  0  0
  3 34  1  0  0  0  0
  4  5  2  0  0  0  0
  4  7  1  0  0  0  0
  5  6  1  0  0  0  0
  5 35  1  0  0  0  0
  6 10  2  0  0  0  0
  6 36  1  0  0  0  0
  7  9  2  0  0  0  0
  7 37  1  0  0  0  0
  8 11  1  0  0  0  0
  8 16  1  0  0  0  0
  8 38  1  0  0  0  0
  9 10  1  0  0  0  0
  9 39  1  0  0  0  0
 10 40  1  0  0  0  0
 11 12  1  0  0  0  0
 11 20  2  0  0  0  0
 12 13  1  0  0  0  0
 12 14  2  0  0  0  0
 13 41  1  0  0  0  0
 14 15  1  0  0  0  0
 14 42  1  0  0  0  0
 15 17  1  0  0  0  0
 15 18  2  0  0  0  0
 16 19  1  0  0  0  0
 16 43  1  0  0  0  0
 16 44  1  0  0  0  0
 17 21  1  0  0  0  0
 18 20  1  0  0  0  0
 18 45  1  0  0  0  0
 19 22  1  0  0  0  0
 19 24  1  0  0  0  0
 19 46  1  0  0  0  0
 20 22  1  0  0  0  0
 21 23  1  0  0  0  0
 21 47  1  0  0  0  0
 21 48  1  0  0  0  0
 22 49  1  0  0  0  0
 22 50  1  0  0  0  0
 23 25  2  0  0  0  0
 23 26  1  0  0  0  0
 24 27  2  0  0  0  0
 24 28  1  0  0  0  0
 26 29  1  0  0  0  0
 26 51  1  0  0  0  0
 29 30  1  0  0  0  0
 29 33  1  0  0  0  0
 29 52  1  0  0  0  0
 30 31  1  0  0  0  0
 30 32  2  0  0  0  0
 33 53  1  0  0  0  0
 33 54  1  0  0  0  0
 33 55  1  0  0  0  0
M  CHG  1  28  -1
M  CHG  1  31  -1
M  END
> <rseq>
1

> <mseq>
376

> <S>
-6.183648

> <rmsd_refine>
2.055684

> <E_conf>
-157.9254

> <E_score1>
-12.12117

> <E_refine>
-33.01261

> <E_score2>
-6.183648

>  <$File>
outputs/pdb_4j58_cleaned.pdb_2024_06_17__22_47_40_V2_BS398_MIN1_/SDF/sdf_db.sdf

> <Rec_index>
1

>  <PLIF_raw>
[[26,28,32,27,28,32,32],[2222,1872,823,1872,1872,823,829],[148,125,54,125,125,54,54],[3,2,2,7,7,7,7],[3,0.6,8,2.163570998,3.587514597,4.782415315,0.5609235716]]

> <FP:PLIF>
6 19 1 16 29 13 31 39 40

>  <PLIF_ligidx>
[32,32,[32,32],32,28,[27,28],28,26,26]

$$$$
376
  MOE2022           3D

 61 64  0  0  1  0  0  0  0  0999 V2000
    7.3450   21.0220   19.3720 C   0  0  0  0  0  0  0  0  0  0  0  0
    6.5410   19.8980   19.2170 C   0  0  0  0  0  0  0  0  0  0  0  0
    5.2050   20.0510   18.8490 C   0  0  0  0  0  0  0  0  0  0  0  0
    4.4530   18.9000   18.6610 O   0  0  0  0  0  0  0  0  0  0  0  0
    3.2530   18.8080   17.8190 C   0  0  1  0  0  0  0  0  0  0  0  0
    4.6640   21.3270   18.6590 C   0  0  0  0  0  0  0  0  0  0  0  0
    6.8140   22.2940   19.1720 C   0  0  0  0  0  0  0  0  0  0  0  0
    5.4760   22.4450   18.8190 C   0  0  0  0  0  0  0  0  0  0  0  0
    3.5870   18.9110   16.3290 C   0  0  0  0  0  0  0  0  0  0  0  0
    4.4410   19.7170   15.9580 O   0  0  0  0  0  0  0  0  0  0  0  0
    2.4210   17.5530   18.1530 C   0  0  2  0  0  0  0  0  0  0  0  0
    2.8890   18.1760   15.4230 N   0  0  0  0  0  0  0  0  0  0  0  0
    1.2100   17.4590   17.1950 C   0  0  2  0  0  0  0  0  0  0  0  0
    1.8700   17.1510   15.8120 C   0  0  1  0  0  0  0  0  0  0  0  0
    2.0600   17.5380   19.5190 O   0  0  0  0  0  0  0  0  0  0  0  0
    3.1520   18.3480   13.9830 C   0  0  0  0  0  0  0  0  0  0  0  0
    0.4620   18.7420   17.1180 N   0  0  0  0  0  0  0  0  0  0  0  0
    0.2440   16.3540   17.6880 C   0  0  0  0  0  0  0  0  0  0  0  0
   -1.0080   16.3630   17.0340 O   0  0  0  0  0  0  0  0  0  0  0  0
    0.8990   16.9600   14.7210 O   0  0  0  0  0  0  0  0  0  0  0  0
    0.4920   15.5820   14.3740 C   0  0  2  0  0  0  0  0  0  0  0  0
    1.6110   14.7530   13.6880 C   0  0  0  0  0  0  0  0  0  0  0  0
   -0.8780   15.5910   13.6950 C   0  0  0  0  0  0  0  0  0  0  0  0
   -1.9040   15.3970   14.3410 O   0  0  0  0  0  0  0  0  0  0  0  0
    2.0460   15.0960   12.2470 C   0  0  2  0  0  0  0  0  0  0  0  0
   -1.0610   15.8320   12.3830 O   0  0  0  0  0  0  0  0  0  0  0  0
   -0.1510   15.8600   11.2650 C   0  0  1  0  0  0  0  0  0  0  0  0
    3.4380   15.3250   12.2180 O   0  0  0  0  0  0  0  0  0  0  0  0
   -0.6070   16.8220   10.1640 C   0  0  0  0  0  0  0  0  0  0  0  0
    1.2870   16.2620   11.5970 C   0  0  2  0  0  0  0  0  0  0  0  0
    0.6630   17.2390    9.4720 C   0  0  0  0  0  0  0  0  0  0  0  0
    1.8540   16.7390   10.2470 C   0  0  0  0  0  0  0  0  0  0  0  0
    0.7190   17.8720    8.4580 O   0  0  0  0  0  0  0  0  0  0  0  0
    8.3650   20.9130   19.6340 H   0  0  0  0  0  0  0  0  0  0  0  0
    6.9470   18.9330   19.3640 H   0  0  0  0  0  0  0  0  0  0  0  0
    2.6350   19.6570   18.0670 H   0  0  0  0  0  0  0  0  0  0  0  0
    3.6490   21.4570   18.3910 H   0  0  0  0  0  0  0  0  0  0  0  0
    7.4310   23.1460   19.2840 H   0  0  0  0  0  0  0  0  0  0  0  0
    5.0760   23.4140   18.6670 H   0  0  0  0  0  0  0  0  0  0  0  0
    3.0560   16.6800   17.9920 H   0  0  0  0  0  0  0  0  0  0  0  0
    2.3940   16.2110   15.9150 H   0  0  0  0  0  0  0  0  0  0  0  0
    1.7070   18.4050   19.7430 H   0  0  0  0  0  0  0  0  0  0  0  0
    3.9580   19.0320   13.7650 H   0  0  0  0  0  0  0  0  0  0  0  0
    3.4180   17.4090   13.5270 H   0  0  0  0  0  0  0  0  0  0  0  0
    2.2820   18.7360   13.4730 H   0  0  0  0  0  0  0  0  0  0  0  0
    1.0730   19.4730   16.7830 H   0  0  0  0  0  0  0  0  0  0  0  0
   -0.2970   18.6340   16.4570 H   0  0  0  0  0  0  0  0  0  0  0  0
    0.7060   15.3840   17.5660 H   0  0  0  0  0  0  0  0  0  0  0  0
    0.0330   16.4910   18.7480 H   0  0  0  0  0  0  0  0  0  0  0  0
   -1.4550   17.1880   17.2400 H   0  0  0  0  0  0  0  0  0  0  0  0
    0.3300   15.0910   15.3220 H   0  0  0  0  0  0  0  0  0  0  0  0
    2.4860   14.7690   14.3370 H   0  0  0  0  0  0  0  0  0  0  0  0
    1.2720   13.7210   13.6760 H   0  0  0  0  0  0  0  0  0  0  0  0
    1.8690   14.2100   11.6340 H   0  0  0  0  0  0  0  0  0  0  0  0
   -0.1440   14.8570   10.8340 H   0  0  0  0  0  0  0  0  0  0  0  0
    3.8830   14.5020   12.4420 H   0  0  0  0  0  0  0  0  0  0  0  0
   -1.3080   16.3530    9.4880 H   0  0  0  0  0  0  0  0  0  0  0  0
   -1.0890   17.6880   10.5960 H   0  0  0  0  0  0  0  0  0  0  0  0
    1.2730   17.1380   12.2410 H   0  0  0  0  0  0  0  0  0  0  0  0
    2.6100   17.5020   10.3730 H   0  0  0  0  0  0  0  0  0  0  0  0
    2.3050   15.9160    9.7090 H   0  0  0  0  0  0  0  0  0  0  0  0
  1  2  1  0  0  0  0
  1  7  2  0  0  0  0
  1 34  1  0  0  0  0
  2  3  2  0  0  0  0
  2 35  1  0  0  0  0
  3  4  1  0  0  0  0
  3  6  1  0  0  0  0
  4  5  1  0  0  0  0
  5  9  1  0  0  0  0
  5 11  1  0  0  0  0
  5 36  1  0  0  0  0
  6  8  2  0  0  0  0
  6 37  1  0  0  0  0
  7  8  1  0  0  0  0
  7 38  1  0  0  0  0
  8 39  1  0  0  0  0
  9 10  2  0  0  0  0
  9 12  1  0  0  0  0
 11 13  1  0  0  0  0
 11 15  1  0  0  0  0
 11 40  1  0  0  0  0
 12 14  1  0  0  0  0
 12 16  1  0  0  0  0
 13 14  1  0  0  0  0
 13 17  1  0  0  0  0
 13 18  1  0  0  0  0
 14 20  1  0  0  0  0
 14 41  1  0  0  0  0
 15 42  1  0  0  0  0
 16 43  1  0  0  0  0
 16 44  1  0  0  0  0
 16 45  1  0  0  0  0
 17 46  1  0  0  0  0
 17 47  1  0  0  0  0
 18 19  1  0  0  0  0
 18 48  1  0  0  0  0
 18 49  1  0  0  0  0
 19 50  1  0  0  0  0
 20 21  1  0  0  0  0
 21 22  1  0  0  0  0
 21 23  1  0  0  0  0
 21 51  1  0  0  0  0
 22 25  1  0  0  0  0
 22 52  1  0  0  0  0
 22 53  1  0  0  0  0
 23 24  2  0  0  0  0
 23 26  1  0  0  0  0
 25 28  1  0  0  0  0
 25 30  1  0  0  0  0
 25 54  1  0  0  0  0
 26 27  1  0  0  0  0
 27 29  1  0  0  0  0
 27 30  1  0  0  0  0
 27 55  1  0  0  0  0
 28 56  1  0  0  0  0
 29 31  1  0  0  0  0
 29 57  1  0  0  0  0
 29 58  1  0  0  0  0
 30 32  1  0  0  0  0
 30 59  1  0  0  0  0
 31 32  1  0  0  0  0
 31 33  2  0  0  0  0
 32 60  1  0  0  0  0
 32 61  1  0  0  0  0
M  END
> <rseq>
1

> <mseq>
377

> <S>
-5.914013

> <rmsd_refine>
2.065212

> <E_conf>
105.6916

> <E_score1>
-10.78489

> <E_refine>
-29.93366

> <E_score2>
-5.914013

>  <$File>
outputs/pdb_4j58_cleaned.pdb_2024_06_17__22_47_40_V2_BS398_MIN1_/SDF/sdf_db.sdf

> <Rec_index>
1

>  <PLIF_raw>
[[15,18],[1504,1071],[101,71],[3,3],[0.5,0.5]]

> <FP:PLIF>
7 8

>  <PLIF_ligidx>
[18,15]

$$$$
377
  MOE2022           3D

 55 57  0  0  0  0  0  0  0  0999 V2000
    5.1900   14.8680    9.9950 C   0  0  0  0  0  0  0  0  0  0  0  0
    4.3940   14.7810   11.1300 C   0  0  0  0  0  0  0  0  0  0  0  0
    3.6450   15.8920   11.5510 C   0  0  0  0  0  0  0  0  0  0  0  0
    5.9560   13.7900    9.6260 O   0  0  0  0  0  0  0  0  0  0  0  0
    3.6820   17.0700   10.7800 C   0  0  0  0  0  0  0  0  0  0  0  0
    2.8630   15.8210   12.7840 C   0  0  0  0  0  0  0  0  0  0  0  0
    2.6560   16.9830   13.4880 N   0  0  0  0  0  0  0  0  0  0  0  0
    2.4040   14.7710   13.2290 O   0  0  0  0  0  0  0  0  0  0  0  0
    5.2200   16.0450    9.2440 C   0  0  0  0  0  0  0  0  0  0  0  0
    1.8460   17.0730   14.7200 C   0  0  0  0  0  0  0  0  0  0  0  0
    2.6190   16.7170   15.9810 C   0  0  0  0  0  0  0  0  0  0  0  0
    1.0840   18.3870   14.8100 C   0  0  0  0  0  0  0  0  0  0  0  0
    3.6370   16.0230   15.9330 O   0  0  0  0  0  0  0  0  0  0  0  0
    0.7170   18.9620   13.7840 O   0  0  0  0  0  0  0  0  0  0  0  0
    0.7330   18.8500   16.0260 N   0  0  0  0  0  0  0  0  0  0  0  0
    5.9870   16.1240    8.1220 O   0  0  0  0  0  0  0  0  0  0  0  0
    2.0980   17.1120   17.1570 N   0  0  0  0  0  0  0  0  0  0  0  0
   -0.3370   19.8610   16.1670 C   0  0  0  0  0  0  0  0  0  0  0  0
    4.4630   17.1460    9.6320 C   0  0  0  0  0  0  0  0  0  0  0  0
    1.3510   18.3640   17.2610 C   0  0  0  0  0  0  0  0  0  0  0  0
    0.0760   21.3160   15.8850 C   0  0  0  0  0  0  0  0  0  0  0  0
    2.1810   19.3790   17.8740 O   0  0  0  0  0  0  0  0  0  0  0  0
    2.5650   16.5170   18.4240 C   0  0  0  0  0  0  0  0  0  0  0  0
    1.4790   16.2700   19.4830 C   0  0  0  0  0  0  0  0  0  0  0  0
    3.4480   19.7770   17.4900 C   0  0  0  0  0  0  0  0  0  0  0  0
    0.4510   15.4320   18.9950 O   0  0  0  0  0  0  0  0  0  0  0  0
    0.8480   21.8710   16.9290 O   0  0  0  0  0  0  0  0  0  0  0  0
    4.4870   19.6410   18.4080 C   0  0  0  0  0  0  0  0  0  0  0  0
    5.7590   20.1040   18.0750 C   0  0  0  0  0  0  0  0  0  0  0  0
    3.6700   20.3460   16.2350 C   0  0  0  0  0  0  0  0  0  0  0  0
    4.9440   20.8070   15.9130 C   0  0  0  0  0  0  0  0  0  0  0  0
    5.9880   20.6910   16.8270 C   0  0  0  0  0  0  0  0  0  0  0  0
    7.0560   19.9600   19.2190 Cl  0  0  0  0  0  0  0  0  0  0  0  0
    4.3660   13.8810   11.6890 H   0  0  0  0  0  0  0  0  0  0  0  0
    5.8390   13.0570   10.2640 H   0  0  0  0  0  0  0  0  0  0  0  0
    3.1070   17.9120   11.0680 H   0  0  0  0  0  0  0  0  0  0  0  0
    3.0670   17.8590   13.1330 H   0  0  0  0  0  0  0  0  0  0  0  0
    1.0690   16.3230   14.6560 H   0  0  0  0  0  0  0  0  0  0  0  0
    6.4450   15.2720    7.9800 H   0  0  0  0  0  0  0  0  0  0  0  0
   -1.1430   19.6030   15.4920 H   0  0  0  0  0  0  0  0  0  0  0  0
   -0.7770   19.8000   17.1540 H   0  0  0  0  0  0  0  0  0  0  0  0
    4.4830   18.0350    9.0550 H   0  0  0  0  0  0  0  0  0  0  0  0
    0.5400   18.1900   17.9570 H   0  0  0  0  0  0  0  0  0  0  0  0
    0.6390   21.3730   14.9540 H   0  0  0  0  0  0  0  0  0  0  0  0
   -0.8220   21.9250   15.7720 H   0  0  0  0  0  0  0  0  0  0  0  0
    3.0340   15.5690   18.2160 H   0  0  0  0  0  0  0  0  0  0  0  0
    3.3380   17.1350   18.8560 H   0  0  0  0  0  0  0  0  0  0  0  0
    1.9350   15.7900   20.3490 H   0  0  0  0  0  0  0  0  0  0  0  0
    1.0440   17.2140   19.8120 H   0  0  0  0  0  0  0  0  0  0  0  0
    0.8420   14.7830   18.4000 H   0  0  0  0  0  0  0  0  0  0  0  0
    0.3150   21.9080   17.7270 H   0  0  0  0  0  0  0  0  0  0  0  0
    4.3170   19.1970   19.3530 H   0  0  0  0  0  0  0  0  0  0  0  0
    2.8790   20.4490   15.5400 H   0  0  0  0  0  0  0  0  0  0  0  0
    5.1150   21.2550   14.9680 H   0  0  0  0  0  0  0  0  0  0  0  0
    6.9560   21.0450   16.5830 H   0  0  0  0  0  0  0  0  0  0  0  0
  1  2  1  0  0  0  0
  1  4  1  0  0  0  0
  1  9  2  0  0  0  0
  2  3  2  0  0  0  0
  2 34  1  0  0  0  0
  3  5  1  0  0  0  0
  3  6  1  0  0  0  0
  4 35  1  0  0  0  0
  5 19  2  0  0  0  0
  5 36  1  0  0  0  0
  6  7  1  0  0  0  0
  6  8  2  0  0  0  0
  7 10  1  0  0  0  0
  7 37  1  0  0  0  0
  9 16  1  0  0  0  0
  9 19  1  0  0  0  0
 10 11  1  0  0  0  0
 10 12  1  0  0  0  0
 10 38  1  0  0  0  0
 11 13  2  0  0  0  0
 11 17  1  0  0  0  0
 12 14  2  0  0  0  0
 12 15  1  0  0  0  0
 15 18  1  0  0  0  0
 15 20  1  0  0  0  0
 16 39  1  0  0  0  0
 17 20  1  0  0  0  0
 17 23  1  0  0  0  0
 18 21  1  0  0  0  0
 18 40  1  0  0  0  0
 18 41  1  0  0  0  0
 19 42  1  0  0  0  0
 20 22  1  0  0  0  0
 20 43  1  0  0  0  0
 21 27  1  0  0  0  0
 21 44  1  0  0  0  0
 21 45  1  0  0  0  0
 22 25  1  0  0  0  0
 23 24  1  0  0  0  0
 23 46  1  0  0  0  0
 23 47  1  0  0  0  0
 24 26  1  0  0  0  0
 24 48  1  0  0  0  0
 24 49  1  0  0  0  0
 25 28  2  0  0  0  0
 25 30  1  0  0  0  0
 26 50  1  0  0  0  0
 27 51  1  0  0  0  0
 28 29  1  0  0  0  0
 28 52  1  0  0  0  0
 29 32  2  0  0  0  0
 29 33  1  0  0  0  0
 30 31  2  0  0  0  0
 30 53  1  0  0  0  0
 31 32  1  0  0  0  0
 31 54  1  0  0  0  0
 32 55  1  0  0  0  0
M  END
> <rseq>
1

> <mseq>
378

> <S>
-6.496262

> <rmsd_refine>
1.129279

> <E_conf>
-64.98771

> <E_score1>
-11.02285

> <E_refine>
-37.1574

> <E_score2>
-6.496262

>  <$File>
outputs/pdb_4j58_cleaned.pdb_2024_06_17__22_47_40_V2_BS398_MIN1_/SDF/sdf_db.sdf

> <Rec_index>
1

>  <PLIF_raw>
[[26,13],[1071,954],[71,62],[3,2],[2.1,1.1]]

> <FP:PLIF>
20 7 14

>  <PLIF_ligidx>
[13,26,26]

$$$$
378
  MOE2022           3D

 62 64  0  0  1  0  0  0  0  0999 V2000
    5.7770   14.7250    9.9930 C   0  0  0  0  0  0  0  0  0  0  0  0
    5.6880   15.9410    9.3250 C   0  0  0  0  0  0  0  0  0  0  0  0
    4.6120   16.7820    9.5960 C   0  0  0  0  0  0  0  0  0  0  0  0
    4.7920   14.3570   10.9080 C   0  0  0  0  0  0  0  0  0  0  0  0
    3.7140   15.2040   11.1780 C   0  0  0  0  0  0  0  0  0  0  0  0
    4.5030   17.9730    8.9450 O   0  0  0  0  0  0  0  0  0  0  0  0
    3.6330   16.4320   10.5190 C   0  0  0  0  0  0  0  0  0  0  0  0
    2.6490   14.7770   12.1770 C   0  0  1  0  0  0  0  0  0  0  0  0
    3.1200   14.8540   13.5630 N   0  0  0  0  0  0  0  0  0  0  0  0
    1.4680   15.6060   12.1020 O   0  0  0  0  0  0  0  0  0  0  0  0
    1.9880   15.3660   14.3360 C   0  0  2  0  0  0  0  0  0  0  0  0
    1.2240   16.2440   13.3580 C   0  0  2  0  0  0  0  0  0  0  0  0
   -0.2450   16.4130   13.6920 C   0  0  0  0  0  0  0  0  0  0  0  0
   -0.9750   15.3970   13.6900 O   0  0  0  0  0  0  0  0  0  0  0  0
   -0.6210   17.5570   14.0300 O   0  5  0  0  0  0  0  0  0  0  0  0
    2.3480   16.0820   15.6230 C   0  0  0  0  0  0  0  0  0  0  0  0
    3.4550   16.4960   15.9000 O   0  0  0  0  0  0  0  0  0  0  0  0
    1.3100   16.2580   16.4660 O   0  0  0  0  0  0  0  0  0  0  0  0
    1.2650   16.9960   17.6330 C   0  0  0  0  0  0  0  0  0  0  0  0
    0.7190   16.1840   18.7890 C   0  0  0  0  0  0  0  0  0  0  0  0
    1.6020   18.3000   17.7050 C   0  0  0  0  0  0  0  0  0  0  0  0
    2.0110   19.1960   16.5460 C   0  0  0  0  0  0  0  0  0  0  0  0
    3.4110   19.7720   16.6440 C   0  0  0  0  0  0  0  0  0  0  0  0
    1.7540   15.5770   19.5950 O   0  0  0  0  0  0  0  0  0  0  0  0
    2.4780   16.4540   20.4780 C   0  0  0  0  0  0  0  0  0  0  0  0
    4.2580   19.5370   15.7840 O   0  0  0  0  0  0  0  0  0  0  0  0
    3.6410   20.5870   17.6890 N   0  0  0  0  0  0  0  0  0  0  0  0
    4.8560   21.3630   17.9530 C   0  0  1  0  0  0  0  0  0  0  0  0
    6.1050   20.5060   18.2050 C   0  0  2  0  0  0  0  0  0  0  0  0
    5.1990   22.3690   16.8450 C   0  0  0  0  0  0  0  0  0  0  0  0
    6.6740   22.1080   16.5150 C   0  0  0  0  0  0  0  0  0  0  0  0
    6.2500   20.0480   19.6580 C   0  0  0  0  0  0  0  0  0  0  0  0
    7.2450   21.4230   17.7570 C   0  0  0  0  0  0  0  0  0  0  0  0
    6.5900   14.0730    9.8020 H   0  0  0  0  0  0  0  0  0  0  0  0
    6.4250   16.2190    8.6170 H   0  0  0  0  0  0  0  0  0  0  0  0
    4.8650   13.4230   11.4000 H   0  0  0  0  0  0  0  0  0  0  0  0
    5.2890   18.1260    8.3850 H   0  0  0  0  0  0  0  0  0  0  0  0
    2.8320   17.1000   10.7050 H   0  0  0  0  0  0  0  0  0  0  0  0
    2.3350   13.7610   11.9760 H   0  0  0  0  0  0  0  0  0  0  0  0
    3.8660   15.5330   13.6000 H   0  0  0  0  0  0  0  0  0  0  0  0
    1.3520   14.5250   14.5780 H   0  0  0  0  0  0  0  0  0  0  0  0
    1.7020   17.2140   13.3120 H   0  0  0  0  0  0  0  0  0  0  0  0
    0.1060   16.8020   19.4290 H   0  0  0  0  0  0  0  0  0  0  0  0
    0.0790   15.3940   18.4170 H   0  0  0  0  0  0  0  0  0  0  0  0
    1.5360   18.8060   18.6280 H   0  0  0  0  0  0  0  0  0  0  0  0
    1.8820   18.6970   15.5970 H   0  0  0  0  0  0  0  0  0  0  0  0
    1.3080   20.0160   16.5100 H   0  0  0  0  0  0  0  0  0  0  0  0
    3.1680   15.8760   21.0910 H   0  0  0  0  0  0  0  0  0  0  0  0
    3.0470   17.1860   19.9030 H   0  0  0  0  0  0  0  0  0  0  0  0
    1.7770   16.9670   21.1320 H   0  0  0  0  0  0  0  0  0  0  0  0
    2.8940   20.6990   18.3590 H   0  0  0  0  0  0  0  0  0  0  0  0
    4.6730   21.9460   18.8570 H   0  0  0  0  0  0  0  0  0  0  0  0
    6.0910   19.6320   17.5560 H   0  0  0  0  0  0  0  0  0  0  0  0
    4.5820   22.2370   15.9560 H   0  0  0  0  0  0  0  0  0  0  0  0
    5.0780   23.3830   17.2280 H   0  0  0  0  0  0  0  0  0  0  0  0
    6.7370   21.4260   15.6660 H   0  0  0  0  0  0  0  0  0  0  0  0
    7.2040   23.0340   16.2900 H   0  0  0  0  0  0  0  0  0  0  0  0
    7.1280   19.4080   19.7500 H   0  0  0  0  0  0  0  0  0  0  0  0
    6.3670   20.9080   20.3160 H   0  0  0  0  0  0  0  0  0  0  0  0
    5.3590   19.4900   19.9470 H   0  0  0  0  0  0  0  0  0  0  0  0
    7.4560   22.1720   18.5230 H   0  0  0  0  0  0  0  0  0  0  0  0
    8.1470   20.8550   17.5220 H   0  0  0  0  0  0  0  0  0  0  0  0
  1  2  1  0  0  0  0
  1  4  2  0  0  0  0
  1 34  1  0  0  0  0
  2  3  2  0  0  0  0
  2 35  1  0  0  0  0
  3  6  1  0  0  0  0
  3  7  1  0  0  0  0
  4  5  1  0  0  0  0
  4 36  1  0  0  0  0
  5  7  2  0  0  0  0
  5  8  1  0  0  0  0
  6 37  1  0  0  0  0
  7 38  1  0  0  0  0
  8  9  1  0  0  0  0
  8 10  1  0  0  0  0
  8 39  1  0  0  0  0
  9 11  1  0  0  0  0
  9 40  1  0  0  0  0
 10 12  1  0  0  0  0
 11 12  1  0  0  0  0
 11 16  1  0  0  0  0
 11 41  1  0  0  0  0
 12 13  1  0  0  0  0
 12 42  1  0  0  0  0
 13 14  2  0  0  0  0
 13 15  1  0  0  0  0
 16 17  2  0  0  0  0
 16 18  1  0  0  0  0
 18 19  1  0  0  0  0
 19 20  1  0  0  0  0
 19 21  2  0  0  0  0
 20 24  1  0  0  0  0
 20 43  1  0  0  0  0
 20 44  1  0  0  0  0
 21 22  1  0  0  0  0
 21 45  1  0  0  0  0
 22 23  1  0  0  0  0
 22 46  1  0  0  0  0
 22 47  1  0  0  0  0
 23 26  2  0  0  0  0
 23 27  1  0  0  0  0
 24 25  1  0  0  0  0
 25 48  1  0  0  0  0
 25 49  1  0  0  0  0
 25 50  1  0  0  0  0
 27 28  1  0  0  0  0
 27 51  1  0  0  0  0
 28 29  1  0  0  0  0
 28 30  1  0  0  0  0
 28 52  1  0  0  0  0
 29 32  1  0  0  0  0
 29 33  1  0  0  0  0
 29 53  1  0  0  0  0
 30 31  1  0  0  0  0
 30 54  1  0  0  0  0
 30 55  1  0  0  0  0
 31 33  1  0  0  0  0
 31 56  1  0  0  0  0
 31 57  1  0  0  0  0
 32 58  1  0  0  0  0
 32 59  1  0  0  0  0
 32 60  1  0  0  0  0
 33 61  1  0  0  0  0
 33 62  1  0  0  0  0
M  CHG  1  15  -1
M  END
> <rseq>
1

> <mseq>
379

> <S>
-7.070421

> <rmsd_refine>
1.039006

> <E_conf>
0.1214007

> <E_score1>
-9.88666

> <E_refine>
-38.31726

> <E_score2>
-7.070421

>  <$File>
outputs/pdb_4j58_cleaned.pdb_2024_06_17__22_47_40_V2_BS398_MIN1_/SDF/sdf_db.sdf

> <Rec_index>
1

>  <PLIF_raw>
[[27,17],[1504,954],[101,62],[3,2],[1.3,1.2]]

> <FP:PLIF>
20 8

>  <PLIF_ligidx>
[17,27]

$$$$
379
  MOE2022           3D

 63 66  0  0  1  0  0  0  0  0999 V2000
    2.7530   16.4710   20.6380 C   0  0  0  0  0  0  0  0  0  0  0  0
    1.5050   15.9190   20.8890 C   0  0  0  0  0  0  0  0  0  0  0  0
    2.9550   17.2650   19.5130 C   0  0  0  0  0  0  0  0  0  0  0  0
    0.4570   16.1500   20.0060 C   0  0  0  0  0  0  0  0  0  0  0  0
    0.6630   16.9320   18.8730 C   0  0  0  0  0  0  0  0  0  0  0  0
    1.9110   17.5010   18.6170 C   0  0  0  0  0  0  0  0  0  0  0  0
    2.1100   18.3060   17.3390 C   0  0  1  0  0  0  0  0  0  0  0  0
    3.1250   19.3670   17.4820 N   0  0  0  0  0  0  0  0  0  0  0  0
    2.4310   17.3250   16.1900 C   0  0  0  0  0  0  0  0  0  0  0  0
    2.8310   20.6720   17.6050 C   0  0  0  0  0  0  0  0  0  0  0  0
    2.5390   17.7180   14.7330 N   0  0  0  0  0  0  0  0  0  0  0  0
    2.1830   18.9470   14.1680 C   0  0  0  0  0  0  0  0  0  0  0  0
    1.6360   19.8830   14.9420 O   0  0  0  0  0  0  0  0  0  0  0  0
    2.9950   16.6830   13.8720 C   0  0  0  0  0  0  0  0  0  0  0  0
    3.9860   21.6860   17.6870 C   0  0  2  0  0  0  0  0  0  0  0  0
    3.2550   15.5850   14.3950 O   0  0  0  0  0  0  0  0  0  0  0  0
    3.1550   16.9580   12.4610 C   0  0  0  0  0  0  0  0  0  0  0  0
    3.6280   15.9240   11.5630 C   0  0  0  0  0  0  0  0  0  0  0  0
    3.5270   14.7190   11.7570 O   0  0  0  0  0  0  0  0  0  0  0  0
    1.6740   21.0860   17.6310 O   0  0  0  0  0  0  0  0  0  0  0  0
    2.3640   19.2070   12.8310 C   0  0  0  0  0  0  0  0  0  0  0  0
    4.2450   16.3310   10.4200 O   0  0  0  0  0  0  0  0  0  0  0  0
    2.8610   18.2150   11.9790 C   0  0  0  0  0  0  0  0  0  0  0  0
    4.8130   15.4320    9.4320 C   0  0  0  0  0  0  0  0  0  0  0  0
    4.9880   21.5720   16.5120 C   0  0  2  0  0  0  0  0  0  0  0  0
    6.1410   14.8270    9.8850 C   0  0  0  0  0  0  0  0  0  0  0  0
    4.6880   21.6750   19.0580 C   0  0  0  0  0  0  0  0  0  0  0  0
    6.2210   21.6470   18.9900 C   0  0  1  0  0  0  0  0  0  0  0  0
    6.6650   20.4530   18.1450 C   0  0  0  0  0  0  0  0  0  0  0  0
    6.0720   20.4960   16.7320 C   0  0  0  0  0  0  0  0  0  0  0  0
    6.8080   22.9470   18.4800 C   0  0  0  0  0  0  0  0  0  0  0  0
    5.6400   22.9380   16.2120 C   0  0  0  0  0  0  0  0  0  0  0  0
    6.5550   23.5010   17.2830 C   0  0  0  0  0  0  0  0  0  0  0  0
    3.5540   16.2840   21.3030 H   0  0  0  0  0  0  0  0  0  0  0  0
    1.3570   15.3230   21.7510 H   0  0  0  0  0  0  0  0  0  0  0  0
    3.9090   17.6890   19.3440 H   0  0  0  0  0  0  0  0  0  0  0  0
   -0.4970   15.7300   20.1910 H   0  0  0  0  0  0  0  0  0  0  0  0
   -0.1390   17.0910   18.1980 H   0  0  0  0  0  0  0  0  0  0  0  0
    1.1520   18.7560   17.1170 H   0  0  0  0  0  0  0  0  0  0  0  0
    4.0950   19.0930   17.4950 H   0  0  0  0  0  0  0  0  0  0  0  0
    3.3550   16.8390   16.4750 H   0  0  0  0  0  0  0  0  0  0  0  0
    1.6970   16.5310   16.2500 H   0  0  0  0  0  0  0  0  0  0  0  0
    1.5920   19.6180   15.8810 H   0  0  0  0  0  0  0  0  0  0  0  0
    3.5130   22.6650   17.5940 H   0  0  0  0  0  0  0  0  0  0  0  0
    2.1120   20.1580   12.4350 H   0  0  0  0  0  0  0  0  0  0  0  0
    2.9840   18.4410   10.9510 H   0  0  0  0  0  0  0  0  0  0  0  0
    4.1010   14.6330    9.2190 H   0  0  0  0  0  0  0  0  0  0  0  0
    4.9810   15.9980    8.5160 H   0  0  0  0  0  0  0  0  0  0  0  0
    4.4310   21.3190   15.6070 H   0  0  0  0  0  0  0  0  0  0  0  0
    6.5450   14.2050    9.0880 H   0  0  0  0  0  0  0  0  0  0  0  0
    6.8440   15.6270   10.1150 H   0  0  0  0  0  0  0  0  0  0  0  0
    5.9880   14.2120   10.7710 H   0  0  0  0  0  0  0  0  0  0  0  0
    4.3570   22.5480   19.6190 H   0  0  0  0  0  0  0  0  0  0  0  0
    4.3960   20.7820   19.6030 H   0  0  0  0  0  0  0  0  0  0  0  0
    6.5990   21.4950   19.9920 H   0  0  0  0  0  0  0  0  0  0  0  0
    7.7550   20.4270   18.0870 H   0  0  0  0  0  0  0  0  0  0  0  0
    6.3340   19.5380   18.6400 H   0  0  0  0  0  0  0  0  0  0  0  0
    5.6420   19.5220   16.5090 H   0  0  0  0  0  0  0  0  0  0  0  0
    6.8910   20.6880   16.0420 H   0  0  0  0  0  0  0  0  0  0  0  0
    7.4750   23.4090   19.1560 H   0  0  0  0  0  0  0  0  0  0  0  0
    6.2040   22.8600   15.2920 H   0  0  0  0  0  0  0  0  0  0  0  0
    4.8700   23.6650   15.9930 H   0  0  0  0  0  0  0  0  0  0  0  0
    7.0170   24.4130   17.0080 H   0  0  0  0  0  0  0  0  0  0  0  0
  1  2  2  0  0  0  0
  1  3  1  0  0  0  0
  1 34  1  0  0  0  0
  2  4  1  0  0  0  0
  2 35  1  0  0  0  0
  3  6  2  0  0  0  0
  3 36  1  0  0  0  0
  4  5  2  0  0  0  0
  4 37  1  0  0  0  0
  5  6  1  0  0  0  0
  5 38  1  0  0  0  0
  6  7  1  0  0  0  0
  7  8  1  0  0  0  0
  7  9  1  0  0  0  0
  7 39  1  0  0  0  0
  8 10  1  0  0  0  0
  8 40  1  0  0  0  0
  9 11  1  0  0  0  0
  9 41  1  0  0  0  0
  9 42  1  0  0  0  0
 10 15  1  0  0  0  0
 10 20  2  0  0  0  0
 11 12  1  0  0  0  0
 11 14  1  0  0  0  0
 12 13  1  0  0  0  0
 12 21  2  0  0  0  0
 13 43  1  0  0  0  0
 14 16  2  0  0  0  0
 14 17  1  0  0  0  0
 15 25  1  0  0  0  0
 15 27  1  0  0  0  0
 15 44  1  0  0  0  0
 17 18  1  0  0  0  0
 17 23  2  0  0  0  0
 18 19  2  0  0  0  0
 18 22  1  0  0  0  0
 21 23  1  0  0  0  0
 21 45  1  0  0  0  0
 22 24  1  0  0  0  0
 23 46  1  0  0  0  0
 24 26  1  0  0  0  0
 24 47  1  0  0  0  0
 24 48  1  0  0  0  0
 25 30  1  0  0  0  0
 25 32  1  0  0  0  0
 25 49  1  0  0  0  0
 26 50  1  0  0  0  0
 26 51  1  0  0  0  0
 26 52  1  0  0  0  0
 27 28  1  0  0  0  0
 27 53  1  0  0  0  0
 27 54  1  0  0  0  0
 28 29  1  0  0  0  0
 28 31  1  0  0  0  0
 28 55  1  0  0  0  0
 29 30  1  0  0  0  0
 29 56  1  0  0  0  0
 29 57  1  0  0  0  0
 30 58  1  0  0  0  0
 30 59  1  0  0  0  0
 31 33  2  0  0  0  0
 31 60  1  0  0  0  0
 32 33  1  0  0  0  0
 32 61  1  0  0  0  0
 32 62  1  0  0  0  0
 33 63  1  0  0  0  0
M  END
> <rseq>
1

> <mseq>
380

> <S>
-7.027237

> <rmsd_refine>
0.9606323

> <E_conf>
-54.81589

> <E_score1>
-10.12362

> <E_refine>
-31.65754

> <E_score2>
-7.027237

>  <$File>
outputs/pdb_4j58_cleaned.pdb_2024_06_17__22_47_40_V2_BS398_MIN1_/SDF/sdf_db.sdf

> <Rec_index>
1

>  <PLIF_raw>
[[],[],[],[],[]]

>  <PLIF_ligidx>
[]

$$$$
380
  MOE2022           3D

 63 64  0  0  1  0  0  0  0  0999 V2000
    6.5450   20.9970   19.2460 C   0  0  0  0  0  0  0  0  0  0  0  0
    5.7040   19.9410   18.9210 C   0  0  0  0  0  0  0  0  0  0  0  0
    6.1860   22.2990   18.9170 C   0  0  0  0  0  0  0  0  0  0  0  0
    4.9780   22.5430   18.2760 C   0  0  0  0  0  0  0  0  0  0  0  0
    4.4890   20.1620   18.2570 C   0  0  0  0  0  0  0  0  0  0  0  0
    4.1140   21.4900   17.9510 C   0  0  0  0  0  0  0  0  0  0  0  0
    2.8410   21.8020   17.3200 C   0  0  0  0  0  0  0  0  0  0  0  0
    1.7630   21.6780   17.8910 O   0  0  0  0  0  0  0  0  0  0  0  0
    2.8750   22.2450   16.0210 N   0  0  0  0  0  0  0  0  0  0  0  0
    3.6690   19.0040   17.9000 C   0  0  0  0  0  0  0  0  0  0  0  0
    3.1410   18.9380   16.6210 N   0  0  0  0  0  0  0  0  0  0  0  0
    3.4860   18.0600   18.6630 O   0  0  0  0  0  0  0  0  0  0  0  0
    1.6770   22.4900   15.2180 C   0  0  0  0  0  0  0  0  0  0  0  0
    1.1080   21.2330   14.5480 C   0  0  0  0  0  0  0  0  0  0  0  0
    2.4250   17.8350   16.0910 C   0  0  0  0  0  0  0  0  0  0  0  0
    2.0870   20.5970   13.5470 C   0  0  0  0  0  0  0  0  0  0  0  0
    3.0080   17.1590   15.0200 C   0  0  0  0  0  0  0  0  0  0  0  0
    2.3730   16.0540   14.4600 C   0  0  0  0  0  0  0  0  0  0  0  0
    1.4890   19.4020   12.7750 C   0  0  1  0  0  0  0  0  0  0  0  0
    0.4150   19.8540   11.9210 O   0  0  0  0  0  0  0  0  0  0  0  0
    3.0480   15.3220   13.3160 C   0  0  0  0  0  0  0  0  0  0  0  0
    1.1760   17.4420   16.5930 C   0  0  0  0  0  0  0  0  0  0  0  0
    2.1270   14.6800   12.2730 C   0  0  0  0  0  0  0  0  0  0  0  0
    0.4740   18.1950   17.7020 C   0  0  0  0  0  0  0  0  0  0  0  0
    2.4980   18.6130   11.9590 C   0  0  0  0  0  0  0  0  0  0  0  0
    0.5580   16.3270   16.0350 C   0  0  0  0  0  0  0  0  0  0  0  0
    3.6320   18.9760   11.8060 O   0  0  0  0  0  0  0  0  0  0  0  0
    2.9390   14.2910   11.0400 C   0  0  0  0  0  0  0  0  0  0  0  0
    3.3320   13.0110   10.9120 O   0  0  0  0  0  0  0  0  0  0  0  0
    4.2260   12.5630    9.8600 C   0  0  0  0  0  0  0  0  0  0  0  0
    3.2810   15.1500   10.2260 O   0  0  0  0  0  0  0  0  0  0  0  0
    1.1500   15.6330   14.9830 C   0  0  0  0  0  0  0  0  0  0  0  0
    5.6950   12.8670   10.1690 C   0  0  0  0  0  0  0  0  0  0  0  0
    7.4650   20.8100   19.7400 H   0  0  0  0  0  0  0  0  0  0  0  0
    5.9950   18.9550   19.1680 H   0  0  0  0  0  0  0  0  0  0  0  0
    6.8330   23.1030   19.1570 H   0  0  0  0  0  0  0  0  0  0  0  0
    4.7060   23.5390   18.0370 H   0  0  0  0  0  0  0  0  0  0  0  0
    3.7850   22.3110   15.5420 H   0  0  0  0  0  0  0  0  0  0  0  0
    3.3650   19.7130   15.9790 H   0  0  0  0  0  0  0  0  0  0  0  0
    0.8990   22.9250   15.8480 H   0  0  0  0  0  0  0  0  0  0  0  0
    1.9130   23.2210   14.4440 H   0  0  0  0  0  0  0  0  0  0  0  0
    0.8470   20.5030   15.3150 H   0  0  0  0  0  0  0  0  0  0  0  0
    0.1940   21.5160   14.0240 H   0  0  0  0  0  0  0  0  0  0  0  0
    2.4040   21.3520   12.8250 H   0  0  0  0  0  0  0  0  0  0  0  0
    2.9670   20.2510   14.0900 H   0  0  0  0  0  0  0  0  0  0  0  0
    3.9370   17.4940   14.6380 H   0  0  0  0  0  0  0  0  0  0  0  0
    1.0370   18.7230   13.4860 H   0  0  0  0  0  0  0  0  0  0  0  0
   -0.0340   19.0960   11.5120 H   0  0  0  0  0  0  0  0  0  0  0  0
    3.6810   16.0400   12.7940 H   0  0  0  0  0  0  0  0  0  0  0  0
    3.6880   14.5480   13.7360 H   0  0  0  0  0  0  0  0  0  0  0  0
    1.6570   13.7900   12.6930 H   0  0  0  0  0  0  0  0  0  0  0  0
    1.3520   15.3870   11.9760 H   0  0  0  0  0  0  0  0  0  0  0  0
    0.6230   19.2680   17.5960 H   0  0  0  0  0  0  0  0  0  0  0  0
   -0.6000   18.0090   17.6670 H   0  0  0  0  0  0  0  0  0  0  0  0
    0.8460   17.8800   18.6760 H   0  0  0  0  0  0  0  0  0  0  0  0
    2.1740   17.7090   11.5110 H   0  0  0  0  0  0  0  0  0  0  0  0
   -0.3770   15.9970   16.4100 H   0  0  0  0  0  0  0  0  0  0  0  0
    4.1080   11.4850    9.7470 H   0  0  0  0  0  0  0  0  0  0  0  0
    3.9460   13.0380    8.9180 H   0  0  0  0  0  0  0  0  0  0  0  0
    0.6610   14.7820   14.5860 H   0  0  0  0  0  0  0  0  0  0  0  0
    5.9860   12.3710   11.0950 H   0  0  0  0  0  0  0  0  0  0  0  0
    6.3220   12.5020    9.3550 H   0  0  0  0  0  0  0  0  0  0  0  0
    5.8380   13.9420   10.2760 H   0  0  0  0  0  0  0  0  0  0  0  0
  1  2  1  0  0  0  0
  1  3  2  0  0  0  0
  1 34  1  0  0  0  0
  2  5  2  0  0  0  0
  2 35  1  0  0  0  0
  3  4  1  0  0  0  0
  3 36  1  0  0  0  0
  4  6  2  0  0  0  0
  4 37  1  0  0  0  0
  5  6  1  0  0  0  0
  5 10  1  0  0  0  0
  6  7  1  0  0  0  0
  7  8  2  0  0  0  0
  7  9  1  0  0  0  0
  9 13  1  0  0  0  0
  9 38  1  0  0  0  0
 10 11  1  0  0  0  0
 10 12  2  0  0  0  0
 11 15  1  0  0  0  0
 11 39  1  0  0  0  0
 13 14  1  0  0  0  0
 13 40  1  0  0  0  0
 13 41  1  0  0  0  0
 14 16  1  0  0  0  0
 14 42  1  0  0  0  0
 14 43  1  0  0  0  0
 15 17  1  0  0  0  0
 15 22  2  0  0  0  0
 16 19  1  0  0  0  0
 16 44  1  0  0  0  0
 16 45  1  0  0  0  0
 17 18  2  0  0  0  0
 17 46  1  0  0  0  0
 18 21  1  0  0  0  0
 18 32  1  0  0  0  0
 19 20  1  0  0  0  0
 19 25  1  0  0  0  0
 19 47  1  0  0  0  0
 20 48  1  0  0  0  0
 21 23  1  0  0  0  0
 21 49  1  0  0  0  0
 21 50  1  0  0  0  0
 22 24  1  0  0  0  0
 22 26  1  0  0  0  0
 23 28  1  0  0  0  0
 23 51  1  0  0  0  0
 23 52  1  0  0  0  0
 24 53  1  0  0  0  0
 24 54  1  0  0  0  0
 24 55  1  0  0  0  0
 25 27  2  0  0  0  0
 25 56  1  0  0  0  0
 26 32  2  0  0  0  0
 26 57  1  0  0  0  0
 28 29  1  0  0  0  0
 28 31  2  0  0  0  0
 29 30  1  0  0  0  0
 30 33  1  0  0  0  0
 30 58  1  0  0  0  0
 30 59  1  0  0  0  0
 32 60  1  0  0  0  0
 33 61  1  0  0  0  0
 33 62  1  0  0  0  0
 33 63  1  0  0  0  0
M  END
> <rseq>
1

> <mseq>
381

> <S>
-5.886596

> <rmsd_refine>
1.323228

> <E_conf>
-46.22643

> <E_score1>
-8.367446

> <E_refine>
-30.50815

> <E_score2>
-5.886596

>  <$File>
outputs/pdb_4j58_cleaned.pdb_2024_06_17__22_47_40_V2_BS398_MIN1_/SDF/sdf_db.sdf

> <Rec_index>
1

>  <PLIF_raw>
[[],[],[],[],[]]

>  <PLIF_ligidx>
[]

$$$$
381
  MOE2022           3D

 69 73  0  0  1  0  0  0  0  0999 V2000
    2.5200   16.4570   20.4300 C   0  0  0  0  0  0  0  0  0  0  0  0
    1.2500   15.9020   20.5080 C   0  0  0  0  0  0  0  0  0  0  0  0
    2.8460   17.3050   19.3770 C   0  0  0  0  0  0  0  0  0  0  0  0
    0.3060   16.1920   19.5300 C   0  0  0  0  0  0  0  0  0  0  0  0
    0.6300   17.0460   18.4790 C   0  0  0  0  0  0  0  0  0  0  0  0
    1.9000   17.6150   18.3960 C   0  0  0  0  0  0  0  0  0  0  0  0
    2.2530   18.5340   17.2340 C   0  0  1  0  0  0  0  0  0  0  0  0
    3.0490   19.6740   17.7100 N   0  0  0  0  0  0  0  0  0  0  0  0
    2.8930   17.7150   16.1140 C   0  0  0  0  0  0  0  0  0  0  0  0
    3.5360   20.6740   16.9640 C   0  0  0  0  0  0  0  0  0  0  0  0
    2.0330   17.0580   15.3230 N   0  0  0  0  0  0  0  0  0  0  0  0
    3.2840   20.7680   15.7630 O   0  0  0  0  0  0  0  0  0  0  0  0
    4.3490   21.7760   17.7040 C   0  0  2  0  0  0  0  0  0  0  0  0
    4.1060   17.5350   16.0460 O   0  0  0  0  0  0  0  0  0  0  0  0
    2.3840   15.8950   14.5180 C   0  0  1  0  0  0  0  0  0  0  0  0
    5.3260   21.1770   18.7620 C   0  0  0  0  0  0  0  0  0  0  0  0
    3.3570   22.7170   18.4220 C   0  0  0  0  0  0  0  0  0  0  0  0
    5.1900   22.6400   16.7120 C   0  0  1  0  0  0  0  0  0  0  0  0
    6.0100   23.5810   17.4060 O   0  0  0  0  0  0  0  0  0  0  0  0
    6.2240   21.7980   15.9630 C   0  0  0  0  0  0  0  0  0  0  0  0
    6.6000   20.5850   18.1220 C   0  0  1  0  0  0  0  0  0  0  0  0
    7.2160   21.5670   17.0940 C   0  0  2  0  0  0  0  0  0  0  0  0
    7.6180   20.2000   19.2030 C   0  0  0  0  0  0  0  0  0  0  0  0
    1.1550   15.1400   14.0230 C   0  0  0  0  0  0  0  0  0  0  0  0
    3.1150   16.2350   13.3280 O   0  0  0  0  0  0  0  0  0  0  0  0
    1.5430   14.5710   12.6640 C   0  0  0  0  0  0  0  0  0  0  0  0
    2.5020   15.6540   12.1370 C   0  0  1  0  0  0  0  0  0  0  0  0
    7.3060   23.0150   17.5920 C   0  0  0  0  0  0  0  0  0  0  0  0
    1.8430   16.7920   11.3530 C   0  0  0  0  0  0  0  0  0  0  0  0
    3.5660   15.1120   11.1700 C   0  0  0  0  0  0  0  0  0  0  0  0
    3.0250   17.4270   10.6180 C   0  0  0  0  0  0  0  0  0  0  0  0
    3.8480   16.2240   10.1510 C   0  0  1  0  0  0  0  0  0  0  0  0
    5.2250   16.5260   10.0660 O   0  0  0  0  0  0  0  0  0  0  0  0
    3.2430   16.2310   21.1710 H   0  0  0  0  0  0  0  0  0  0  0  0
    1.0050   15.2580   21.3110 H   0  0  0  0  0  0  0  0  0  0  0  0
    3.8190   17.7180   19.3290 H   0  0  0  0  0  0  0  0  0  0  0  0
   -0.6630   15.7660   19.5840 H   0  0  0  0  0  0  0  0  0  0  0  0
   -0.0980   17.2610   17.7390 H   0  0  0  0  0  0  0  0  0  0  0  0
    1.3240   18.9380   16.8520 H   0  0  0  0  0  0  0  0  0  0  0  0
    3.2100   19.7100   18.7060 H   0  0  0  0  0  0  0  0  0  0  0  0
    1.0480   17.2290   15.4510 H   0  0  0  0  0  0  0  0  0  0  0  0
    3.0140   15.2260   15.0900 H   0  0  0  0  0  0  0  0  0  0  0  0
    5.6260   21.9670   19.4500 H   0  0  0  0  0  0  0  0  0  0  0  0
    4.8350   20.4170   19.3700 H   0  0  0  0  0  0  0  0  0  0  0  0
    2.6870   23.1700   17.6910 H   0  0  0  0  0  0  0  0  0  0  0  0
    2.7570   22.1620   19.1410 H   0  0  0  0  0  0  0  0  0  0  0  0
    3.8880   23.5100   18.9490 H   0  0  0  0  0  0  0  0  0  0  0  0
    4.5310   23.1510   16.0080 H   0  0  0  0  0  0  0  0  0  0  0  0
    5.8120   20.8690   15.5790 H   0  0  0  0  0  0  0  0  0  0  0  0
    6.6760   22.3770   15.1550 H   0  0  0  0  0  0  0  0  0  0  0  0
    6.3190   19.6740   17.5950 H   0  0  0  0  0  0  0  0  0  0  0  0
    8.1730   21.2030   16.7170 H   0  0  0  0  0  0  0  0  0  0  0  0
    8.4960   19.7480   18.7390 H   0  0  0  0  0  0  0  0  0  0  0  0
    7.9270   21.0800   19.7670 H   0  0  0  0  0  0  0  0  0  0  0  0
    7.1730   19.4770   19.8860 H   0  0  0  0  0  0  0  0  0  0  0  0
    0.8580   14.3580   14.7210 H   0  0  0  0  0  0  0  0  0  0  0  0
    0.3280   15.8390   13.8860 H   0  0  0  0  0  0  0  0  0  0  0  0
    2.0830   13.6330   12.8100 H   0  0  0  0  0  0  0  0  0  0  0  0
    0.6780   14.4230   12.0160 H   0  0  0  0  0  0  0  0  0  0  0  0
    8.0220   23.5630   16.9790 H   0  0  0  0  0  0  0  0  0  0  0  0
    7.6110   23.0640   18.6370 H   0  0  0  0  0  0  0  0  0  0  0  0
    1.1340   16.3900   10.6280 H   0  0  0  0  0  0  0  0  0  0  0  0
    1.3500   17.5090   12.0110 H   0  0  0  0  0  0  0  0  0  0  0  0
    4.4630   14.8060   11.7020 H   0  0  0  0  0  0  0  0  0  0  0  0
    3.1680   14.2500   10.6330 H   0  0  0  0  0  0  0  0  0  0  0  0
    2.6870   18.0290    9.7740 H   0  0  0  0  0  0  0  0  0  0  0  0
    3.6060   18.0370   11.3120 H   0  0  0  0  0  0  0  0  0  0  0  0
    3.4850   15.9030    9.1730 H   0  0  0  0  0  0  0  0  0  0  0  0
    5.3540   17.1850    9.3770 H   0  0  0  0  0  0  0  0  0  0  0  0
  1  2  2  0  0  0  0
  1  3  1  0  0  0  0
  1 34  1  0  0  0  0
  2  4  1  0  0  0  0
  2 35  1  0  0  0  0
  3  6  2  0  0  0  0
  3 36  1  0  0  0  0
  4  5  2  0  0  0  0
  4 37  1  0  0  0  0
  5  6  1  0  0  0  0
  5 38  1  0  0  0  0
  6  7  1  0  0  0  0
  7  8  1  0  0  0  0
  7  9  1  0  0  0  0
  7 39  1  0  0  0  0
  8 10  1  0  0  0  0
  8 40  1  0  0  0  0
  9 11  1  0  0  0  0
  9 14  2  0  0  0  0
 10 12  2  0  0  0  0
 10 13  1  0  0  0  0
 11 15  1  0  0  0  0
 11 41  1  0  0  0  0
 13 16  1  0  0  0  0
 13 17  1  0  0  0  0
 13 18  1  0  0  0  0
 15 24  1  0  0  0  0
 15 25  1  0  0  0  0
 15 42  1  0  0  0  0
 16 21  1  0  0  0  0
 16 43  1  0  0  0  0
 16 44  1  0  0  0  0
 17 45  1  0  0  0  0
 17 46  1  0  0  0  0
 17 47  1  0  0  0  0
 18 19  1  0  0  0  0
 18 20  1  0  0  0  0
 18 48  1  0  0  0  0
 19 28  1  0  0  0  0
 20 22  1  0  0  0  0
 20 49  1  0  0  0  0
 20 50  1  0  0  0  0
 21 22  1  0  0  0  0
 21 23  1  0  0  0  0
 21 51  1  0  0  0  0
 22 28  1  0  0  0  0
 22 52  1  0  0  0  0
 23 53  1  0  0  0  0
 23 54  1  0  0  0  0
 23 55  1  0  0  0  0
 24 26  1  0  0  0  0
 24 56  1  0  0  0  0
 24 57  1  0  0  0  0
 25 27  1  0  0  0  0
 26 27  1  0  0  0  0
 26 58  1  0  0  0  0
 26 59  1  0  0  0  0
 27 29  1  0  0  0  0
 27 30  1  0  0  0  0
 28 60  1  0  0  0  0
 28 61  1  0  0  0  0
 29 31  1  0  0  0  0
 29 62  1  0  0  0  0
 29 63  1  0  0  0  0
 30 32  1  0  0  0  0
 30 64  1  0  0  0  0
 30 65  1  0  0  0  0
 31 32  1  0  0  0  0
 31 66  1  0  0  0  0
 31 67  1  0  0  0  0
 32 33  1  0  0  0  0
 32 68  1  0  0  0  0
 33 69  1  0  0  0  0
M  END
> <rseq>
1

> <mseq>
382

> <S>
-7.304238

> <rmsd_refine>
1.087482

> <E_conf>
-35.32142

> <E_score1>
-9.507906

> <E_refine>
-43.59705

> <E_score2>
-7.304238

>  <$File>
outputs/pdb_4j58_cleaned.pdb_2024_06_17__22_47_40_V2_BS398_MIN1_/SDF/sdf_db.sdf

> <Rec_index>
1

>  <PLIF_raw>
[[8,14,33],[1504,954,823],[101,62,54],[3,2,2],[2.2,1.8,3.1]]

> <FP:PLIF>
6 19 20 23 8 10

>  <PLIF_ligidx>
[33,33,14,14,8,8]

$$$$
382
  MOE2022           3D

 56 58  0  0  1  0  0  0  0  0999 V2000
    5.6630   14.7280   10.0030 C   0  0  0  0  0  0  0  0  0  0  0  0
    5.6030   15.9800    9.4030 C   0  0  0  0  0  0  0  0  0  0  0  0
    4.5650   16.8430    9.7450 C   0  0  0  0  0  0  0  0  0  0  0  0
    4.6880   14.3470   10.9230 C   0  0  0  0  0  0  0  0  0  0  0  0
    3.6480   15.2160   11.2660 C   0  0  0  0  0  0  0  0  0  0  0  0
    4.4810   18.0700    9.1600 O   0  0  0  0  0  0  0  0  0  0  0  0
    3.5970   16.4790   10.6740 C   0  0  0  0  0  0  0  0  0  0  0  0
    2.5960   14.7770   12.2710 C   0  0  1  0  0  0  0  0  0  0  0  0
    3.0860   14.8460   13.6510 N   0  0  0  0  0  0  0  0  0  0  0  0
    1.4130   15.6040   12.2160 O   0  0  0  0  0  0  0  0  0  0  0  0
    1.9720   15.3740   14.4410 C   0  0  2  0  0  0  0  0  0  0  0  0
    1.1970   16.2530   13.4720 C   0  0  2  0  0  0  0  0  0  0  0  0
   -0.2640   16.4340   13.8340 C   0  0  0  0  0  0  0  0  0  0  0  0
   -0.9950   15.4210   13.8730 O   0  0  0  0  0  0  0  0  0  0  0  0
   -0.6300   17.5870   14.1530 O   0  5  0  0  0  0  0  0  0  0  0  0
    2.3670   16.0950   15.7150 C   0  0  0  0  0  0  0  0  0  0  0  0
    3.4780   16.5240   15.9470 O   0  0  0  0  0  0  0  0  0  0  0  0
    1.3640   16.2580   16.6030 O   0  0  0  0  0  0  0  0  0  0  0  0
    1.3720   17.0470   17.7390 C   0  0  0  0  0  0  0  0  0  0  0  0
    1.0480   16.2820   19.0020 C   0  0  0  0  0  0  0  0  0  0  0  0
    1.5990   18.3730   17.7050 C   0  0  0  0  0  0  0  0  0  0  0  0
    1.9250   19.2140   16.4820 C   0  0  0  0  0  0  0  0  0  0  0  0
    3.3890   19.6000   16.4150 C   0  0  0  0  0  0  0  0  0  0  0  0
    2.0400   16.5210   20.0340 O   0  0  0  0  0  0  0  0  0  0  0  0
    1.8330   15.8480   21.2890 C   0  0  0  0  0  0  0  0  0  0  0  0
    4.0410   19.5330   15.3880 O   0  0  0  0  0  0  0  0  0  0  0  0
    3.9560   19.9940   17.6090 N   0  0  0  0  0  0  0  0  0  0  0  0
    5.3220   20.2610   17.8780 C   0  0  0  0  0  0  0  0  0  0  0  0
    5.7760   19.9400   19.1570 C   0  0  0  0  0  0  0  0  0  0  0  0
    6.1890   20.8250   16.9350 C   0  0  0  0  0  0  0  0  0  0  0  0
    7.1070   20.1580   19.4860 C   0  0  0  0  0  0  0  0  0  0  0  0
    7.5230   21.0330   17.2750 C   0  0  0  0  0  0  0  0  0  0  0  0
    7.9830   20.6980   18.5470 C   0  0  0  0  0  0  0  0  0  0  0  0
    6.4480   14.0600    9.7580 H   0  0  0  0  0  0  0  0  0  0  0  0
    6.3320   16.2680    8.6910 H   0  0  0  0  0  0  0  0  0  0  0  0
    4.7390   13.3860   11.3640 H   0  0  0  0  0  0  0  0  0  0  0  0
    5.2590   18.2280    8.5900 H   0  0  0  0  0  0  0  0  0  0  0  0
    2.8250   17.1630   10.9170 H   0  0  0  0  0  0  0  0  0  0  0  0
    2.2830   13.7610   12.0670 H   0  0  0  0  0  0  0  0  0  0  0  0
    3.8420   15.5140   13.6780 H   0  0  0  0  0  0  0  0  0  0  0  0
    1.3320   14.5410   14.7000 H   0  0  0  0  0  0  0  0  0  0  0  0
    1.6810   17.2180   13.4100 H   0  0  0  0  0  0  0  0  0  0  0  0
    0.0800   16.5840   19.3770 H   0  0  0  0  0  0  0  0  0  0  0  0
    0.9980   15.2200   18.8080 H   0  0  0  0  0  0  0  0  0  0  0  0
    1.5650   18.9280   18.6000 H   0  0  0  0  0  0  0  0  0  0  0  0
    1.6220   18.7200   15.5700 H   0  0  0  0  0  0  0  0  0  0  0  0
    1.3290   20.1150   16.5260 H   0  0  0  0  0  0  0  0  0  0  0  0
    1.7380   14.7750   21.1270 H   0  0  0  0  0  0  0  0  0  0  0  0
    2.6860   16.0270   21.9430 H   0  0  0  0  0  0  0  0  0  0  0  0
    0.9310   16.2260   21.7710 H   0  0  0  0  0  0  0  0  0  0  0  0
    3.3290   19.9650   18.4290 H   0  0  0  0  0  0  0  0  0  0  0  0
    5.1100   19.5260   19.8690 H   0  0  0  0  0  0  0  0  0  0  0  0
    5.8410   21.1000   15.9750 H   0  0  0  0  0  0  0  0  0  0  0  0
    7.4560   19.9090   20.4530 H   0  0  0  0  0  0  0  0  0  0  0  0
    8.1910   21.4510   16.5680 H   0  0  0  0  0  0  0  0  0  0  0  0
    9.0000   20.8560   18.8020 H   0  0  0  0  0  0  0  0  0  0  0  0
  1  2  1  0  0  0  0
  1  4  2  0  0  0  0
  1 34  1  0  0  0  0
  2  3  2  0  0  0  0
  2 35  1  0  0  0  0
  3  6  1  0  0  0  0
  3  7  1  0  0  0  0
  4  5  1  0  0  0  0
  4 36  1  0  0  0  0
  5  7  2  0  0  0  0
  5  8  1  0  0  0  0
  6 37  1  0  0  0  0
  7 38  1  0  0  0  0
  8  9  1  0  0  0  0
  8 10  1  0  0  0  0
  8 39  1  0  0  0  0
  9 11  1  0  0  0  0
  9 40  1  0  0  0  0
 10 12  1  0  0  0  0
 11 12  1  0  0  0  0
 11 16  1  0  0  0  0
 11 41  1  0  0  0  0
 12 13  1  0  0  0  0
 12 42  1  0  0  0  0
 13 14  2  0  0  0  0
 13 15  1  0  0  0  0
 16 17  2  0  0  0  0
 16 18  1  0  0  0  0
 18 19  1  0  0  0  0
 19 20  1  0  0  0  0
 19 21  2  0  0  0  0
 20 24  1  0  0  0  0
 20 43  1  0  0  0  0
 20 44  1  0  0  0  0
 21 22  1  0  0  0  0
 21 45  1  0  0  0  0
 22 23  1  0  0  0  0
 22 46  1  0  0  0  0
 22 47  1  0  0  0  0
 23 26  2  0  0  0  0
 23 27  1  0  0  0  0
 24 25  1  0  0  0  0
 25 48  1  0  0  0  0
 25 49  1  0  0  0  0
 25 50  1  0  0  0  0
 27 28  1  0  0  0  0
 27 51  1  0  0  0  0
 28 29  2  0  0  0  0
 28 30  1  0  0  0  0
 29 31  1  0  0  0  0
 29 52  1  0  0  0  0
 30 32  2  0  0  0  0
 30 53  1  0  0  0  0
 31 33  2  0  0  0  0
 31 54  1  0  0  0  0
 32 33  1  0  0  0  0
 32 55  1  0  0  0  0
 33 56  1  0  0  0  0
M  CHG  1  15  -1
M  END
> <rseq>
1

> <mseq>
383

> <S>
-7.164492

> <rmsd_refine>
1.372254

> <E_conf>
-13.77815

> <E_score1>
-9.990017

> <E_refine>
-41.3028

> <E_score2>
-7.164492

>  <$File>
outputs/pdb_4j58_cleaned.pdb_2024_06_17__22_47_40_V2_BS398_MIN1_/SDF/sdf_db.sdf

> <Rec_index>
1

>  <PLIF_raw>
[[6,27,17],[2222,1504,954],[148,101,62],[3,3,2],[0.6,1.5,1.4]]

> <FP:PLIF>
20 8 10 39

>  <PLIF_ligidx>
[17,27,27,6]

$$$$
383
  MOE2022           3D

 58 61  0  0  1  0  0  0  0  0999 V2000
    3.3430   17.3340   19.5340 O   0  0  0  0  0  0  0  0  0  0  0  0
    2.3110   16.9850   18.9510 C   0  0  0  0  0  0  0  0  0  0  0  0
    1.1860   16.3650   19.5980 C   0  0  0  0  0  0  0  0  0  0  0  0
    2.2150   17.1790   17.5700 N   0  0  0  0  0  0  0  0  0  0  0  0
    0.1340   15.9390   18.8420 C   0  0  0  0  0  0  0  0  0  0  0  0
    1.2170   16.4990   16.8500 C   0  0  0  0  0  0  0  0  0  0  0  0
    0.1910   15.9910   17.4690 N   0  0  0  0  0  0  0  0  0  0  0  0
    1.4060   16.2930   15.4200 C   0  0  0  0  0  0  0  0  0  0  0  0
    3.1510   18.1020   16.8490 C   0  0  0  0  0  0  0  0  0  0  0  0
    1.2080   16.1830   21.1060 C   0  0  0  0  0  0  0  0  0  0  0  0
   -1.1150   15.3050   19.4210 C   0  0  0  0  0  0  0  0  0  0  0  0
    3.2710   19.5440   17.4000 C   0  0  1  0  0  0  0  0  0  0  0  0
    4.5580   19.8020   18.2100 C   0  0  0  0  0  0  0  0  0  0  0  0
    0.4370   16.6750   14.4800 C   0  0  0  0  0  0  0  0  0  0  0  0
    3.3680   20.6070   16.3090 C   0  0  0  0  0  0  0  0  0  0  0  0
    0.6320   16.4230   13.1260 C   0  0  0  0  0  0  0  0  0  0  0  0
    1.7960   15.7790   12.7060 C   0  0  0  0  0  0  0  0  0  0  0  0
    2.7090   20.5820   15.2700 O   0  0  0  0  0  0  0  0  0  0  0  0
    2.5710   15.6510   14.9750 C   0  0  0  0  0  0  0  0  0  0  0  0
    4.7430   21.3100   18.0070 C   0  0  2  0  0  0  0  0  0  0  0  0
    4.2740   21.5290   16.6430 N   0  0  0  0  0  0  0  0  0  0  0  0
    1.9620   15.5510   11.3510 O   0  0  0  0  0  0  0  0  0  0  0  0
    4.5330   22.7470   15.8780 C   0  0  0  0  0  0  0  0  0  0  0  0
    3.1090   14.9710   10.8510 C   0  0  0  0  0  0  0  0  0  0  0  0
    2.7660   15.3830   13.6310 C   0  0  0  0  0  0  0  0  0  0  0  0
    3.2340   13.5810   10.8590 C   0  0  0  0  0  0  0  0  0  0  0  0
    4.1320   15.7910   10.3830 C   0  0  0  0  0  0  0  0  0  0  0  0
    5.3060   15.1880    9.9400 C   0  0  0  0  0  0  0  0  0  0  0  0
    6.3280   15.9600    9.4830 O   0  0  0  0  0  0  0  0  0  0  0  0
    5.4630   13.8020    9.9540 C   0  0  0  0  0  0  0  0  0  0  0  0
    4.4180   13.0000   10.4090 C   0  0  0  0  0  0  0  0  0  0  0  0
    6.1820   21.7770   18.2840 C   0  0  0  0  0  0  0  0  0  0  0  0
    7.0900   21.3740   17.5220 O   0  0  0  0  0  0  0  0  0  0  0  0
    6.3450   22.5290   19.2720 O   0  5  0  0  0  0  0  0  0  0  0  0
    4.1280   17.6600   16.7570 H   0  0  0  0  0  0  0  0  0  0  0  0
    2.8390   18.2000   15.8210 H   0  0  0  0  0  0  0  0  0  0  0  0
    0.4730   16.8130   21.5870 H   0  0  0  0  0  0  0  0  0  0  0  0
    0.9950   15.1590   21.3680 H   0  0  0  0  0  0  0  0  0  0  0  0
    2.1730   16.4060   21.5380 H   0  0  0  0  0  0  0  0  0  0  0  0
   -1.3710   15.7030   20.3930 H   0  0  0  0  0  0  0  0  0  0  0  0
   -1.9710   15.4720   18.7810 H   0  0  0  0  0  0  0  0  0  0  0  0
   -0.9940   14.2360   19.5190 H   0  0  0  0  0  0  0  0  0  0  0  0
    2.3920   19.7690   18.0040 H   0  0  0  0  0  0  0  0  0  0  0  0
    4.4600   19.5590   19.2660 H   0  0  0  0  0  0  0  0  0  0  0  0
    5.3990   19.2690   17.7670 H   0  0  0  0  0  0  0  0  0  0  0  0
   -0.4490   17.1560   14.8050 H   0  0  0  0  0  0  0  0  0  0  0  0
   -0.1000   16.7160   12.4170 H   0  0  0  0  0  0  0  0  0  0  0  0
    3.3070   15.3570   15.6770 H   0  0  0  0  0  0  0  0  0  0  0  0
    4.0700   21.8370   18.6860 H   0  0  0  0  0  0  0  0  0  0  0  0
    4.0480   23.6010   16.3310 H   0  0  0  0  0  0  0  0  0  0  0  0
    5.5910   22.9630   15.8270 H   0  0  0  0  0  0  0  0  0  0  0  0
    4.1740   22.6690   14.8610 H   0  0  0  0  0  0  0  0  0  0  0  0
    3.6410   14.8770   13.3230 H   0  0  0  0  0  0  0  0  0  0  0  0
    2.4410   12.9750   11.2160 H   0  0  0  0  0  0  0  0  0  0  0  0
    4.0210   16.8440   10.3740 H   0  0  0  0  0  0  0  0  0  0  0  0
    6.0570   16.8950    9.3920 H   0  0  0  0  0  0  0  0  0  0  0  0
    6.3670   13.3630    9.6190 H   0  0  0  0  0  0  0  0  0  0  0  0
    4.5270   11.9470   10.4180 H   0  0  0  0  0  0  0  0  0  0  0  0
  1  2  2  0  0  0  0
  2  3  1  0  0  0  0
  2  4  1  0  0  0  0
  3  5  2  0  0  0  0
  3 10  1  0  0  0  0
  4  6  1  0  0  0  0
  4  9  1  0  0  0  0
  5  7  1  0  0  0  0
  5 11  1  0  0  0  0
  6  7  2  0  0  0  0
  6  8  1  0  0  0  0
  8 14  1  0  0  0  0
  8 19  2  0  0  0  0
  9 12  1  0  0  0  0
  9 35  1  0  0  0  0
  9 36  1  0  0  0  0
 10 37  1  0  0  0  0
 10 38  1  0  0  0  0
 10 39  1  0  0  0  0
 11 40  1  0  0  0  0
 11 41  1  0  0  0  0
 11 42  1  0  0  0  0
 12 13  1  0  0  0  0
 12 15  1  0  0  0  0
 12 43  1  0  0  0  0
 13 20  1  0  0  0  0
 13 44  1  0  0  0  0
 13 45  1  0  0  0  0
 14 16  2  0  0  0  0
 14 46  1  0  0  0  0
 15 18  2  0  0  0  0
 15 21  1  0  0  0  0
 16 17  1  0  0  0  0
 16 47  1  0  0  0  0
 17 22  1  0  0  0  0
 17 25  2  0  0  0  0
 19 25  1  0  0  0  0
 19 48  1  0  0  0  0
 20 21  1  0  0  0  0
 20 32  1  0  0  0  0
 20 49  1  0  0  0  0
 21 23  1  0  0  0  0
 22 24  1  0  0  0  0
 23 50  1  0  0  0  0
 23 51  1  0  0  0  0
 23 52  1  0  0  0  0
 24 26  2  0  0  0  0
 24 27  1  0  0  0  0
 25 53  1  0  0  0  0
 26 31  1  0  0  0  0
 26 54  1  0  0  0  0
 27 28  2  0  0  0  0
 27 55  1  0  0  0  0
 28 29  1  0  0  0  0
 28 30  1  0  0  0  0
 29 56  1  0  0  0  0
 30 31  2  0  0  0  0
 30 57  1  0  0  0  0
 31 58  1  0  0  0  0
 32 33  2  0  0  0  0
 32 34  1  0  0  0  0
M  CHG  1  34  -1
M  END
> <rseq>
1

> <mseq>
384

> <S>
-6.796027

> <rmsd_refine>
1.428107

> <E_conf>
-56.06538

> <E_score1>
-10.57938

> <E_refine>
-36.20348

> <E_score2>
-6.796027

>  <$File>
outputs/pdb_4j58_cleaned.pdb_2024_06_17__22_47_40_V2_BS398_MIN1_/SDF/sdf_db.sdf

> <Rec_index>
1

>  <PLIF_raw>
[[29,34,2,4,6,7,5,3,2,4,6,7,5,3],[2222,1872,954,954,954,954,954,954,1519,1519,1519,1519,1519,1519],[148,125,62,62,62,62,62,62,102,102,102,102,102,102],[3,7,10,10,10,10,10,10,10,10,10,10,10,10],[0.6,3.316113533,1.5,1.5,1.5,1.5,1.5,1.5,0.5,0.5,0.5,0.5,0.5,0.5]]

> <FP:PLIF>
21 30 22 13 39

>  <PLIF_ligidx>
[[2,4,6,7,5,3],[2,4,6,7,5,3],[2,4,6,7,5,3],34,29]

$$$$
384
  MOE2022           3D

 56 59  0  0  1  0  0  0  0  0999 V2000
    3.3850   17.2590   19.5940 O   0  0  0  0  0  0  0  0  0  0  0  0
    2.3250   16.9000   19.0710 C   0  0  0  0  0  0  0  0  0  0  0  0
    1.2440   16.2730   19.7860 C   0  0  0  0  0  0  0  0  0  0  0  0
    2.1480   17.0930   17.6980 N   0  0  0  0  0  0  0  0  0  0  0  0
    0.1460   15.8530   19.0960 C   0  0  0  0  0  0  0  0  0  0  0  0
    1.1060   16.4110   17.0400 C   0  0  0  0  0  0  0  0  0  0  0  0
    0.1200   15.9080   17.7240 N   0  0  0  0  0  0  0  0  0  0  0  0
    1.1890   16.2060   15.5980 C   0  0  0  0  0  0  0  0  0  0  0  0
    3.0400   18.0190   16.9230 C   0  0  0  0  0  0  0  0  0  0  0  0
    1.3690   16.0750   21.2860 C   0  0  0  0  0  0  0  0  0  0  0  0
   -1.0760   15.2260   19.7370 C   0  0  0  0  0  0  0  0  0  0  0  0
    3.1770   19.4680   17.4480 C   0  0  1  0  0  0  0  0  0  0  0  0
    4.4840   19.7420   18.2270 C   0  0  0  0  0  0  0  0  0  0  0  0
    0.0890   16.4650   14.7660 C   0  0  0  0  0  0  0  0  0  0  0  0
    3.2580   20.5170   16.3410 C   0  0  0  0  0  0  0  0  0  0  0  0
    0.1640   16.2150   13.4010 C   0  0  0  0  0  0  0  0  0  0  0  0
    1.3450   15.7070   12.8610 C   0  0  0  0  0  0  0  0  0  0  0  0
    2.6520   20.4620   15.2740 O   0  0  0  0  0  0  0  0  0  0  0  0
    2.3620   15.6800   15.0340 C   0  0  0  0  0  0  0  0  0  0  0  0
    4.6530   21.2520   18.0190 C   0  0  1  0  0  0  0  0  0  0  0  0
    2.4470   15.4310   13.6740 C   0  0  0  0  0  0  0  0  0  0  0  0
    6.0990   21.7340   18.2160 C   0  0  0  0  0  0  0  0  0  0  0  0
    6.3380   22.3690   19.2690 O   0  0  0  0  0  0  0  0  0  0  0  0
    6.9360   21.4590   17.3250 O   0  5  0  0  0  0  0  0  0  0  0  0
    4.1310   21.4560   16.6790 N   0  0  0  0  0  0  0  0  0  0  0  0
    1.3980   15.4880   11.5050 O   0  0  0  0  0  0  0  0  0  0  0  0
    2.6020   15.6020   10.8370 C   0  0  0  0  0  0  0  0  0  0  0  0
    3.0940   16.8680   10.4960 C   0  0  0  0  0  0  0  0  0  0  0  0
    2.3750   17.9960   10.7970 O   0  0  0  0  0  0  0  0  0  0  0  0
    3.3250   14.4500   10.5320 C   0  0  0  0  0  0  0  0  0  0  0  0
    4.3190   16.9940    9.8500 C   0  0  0  0  0  0  0  0  0  0  0  0
    5.0380   15.8350    9.5600 C   0  0  0  0  0  0  0  0  0  0  0  0
    6.2420   15.9410    8.9330 O   0  0  0  0  0  0  0  0  0  0  0  0
    4.5570   14.5670    9.8930 C   0  0  0  0  0  0  0  0  0  0  0  0
    4.0160   17.5830   16.7870 H   0  0  0  0  0  0  0  0  0  0  0  0
    2.6740   18.1050   15.9130 H   0  0  0  0  0  0  0  0  0  0  0  0
    0.6090   16.6280   21.8200 H   0  0  0  0  0  0  0  0  0  0  0  0
    1.2710   15.0310   21.5400 H   0  0  0  0  0  0  0  0  0  0  0  0
    2.3320   16.3810   21.6690 H   0  0  0  0  0  0  0  0  0  0  0  0
   -1.1860   15.4730   20.7820 H   0  0  0  0  0  0  0  0  0  0  0  0
   -1.9810   15.5570   19.2450 H   0  0  0  0  0  0  0  0  0  0  0  0
   -1.0460   14.1490   19.6480 H   0  0  0  0  0  0  0  0  0  0  0  0
    2.3090   19.7050   18.0620 H   0  0  0  0  0  0  0  0  0  0  0  0
    4.4190   19.4990   19.2840 H   0  0  0  0  0  0  0  0  0  0  0  0
    5.3180   19.2180   17.7610 H   0  0  0  0  0  0  0  0  0  0  0  0
   -0.8060   16.8510   15.1810 H   0  0  0  0  0  0  0  0  0  0  0  0
   -0.6660   16.4120   12.7730 H   0  0  0  0  0  0  0  0  0  0  0  0
    3.1920   15.4600   15.6540 H   0  0  0  0  0  0  0  0  0  0  0  0
    4.0080   21.7800   18.7230 H   0  0  0  0  0  0  0  0  0  0  0  0
    3.3370   15.0280   13.2680 H   0  0  0  0  0  0  0  0  0  0  0  0
    4.3980   22.2350   16.0960 H   0  0  0  0  0  0  0  0  0  0  0  0
    2.8260   18.8000   10.4760 H   0  0  0  0  0  0  0  0  0  0  0  0
    2.9440   13.4960   10.7930 H   0  0  0  0  0  0  0  0  0  0  0  0
    4.6940   17.9480    9.5840 H   0  0  0  0  0  0  0  0  0  0  0  0
    6.4390   16.8760    8.7270 H   0  0  0  0  0  0  0  0  0  0  0  0
    5.1240   13.7030    9.6600 H   0  0  0  0  0  0  0  0  0  0  0  0
  1  2  2  0  0  0  0
  2  3  1  0  0  0  0
  2  4  1  0  0  0  0
  3  5  2  0  0  0  0
  3 10  1  0  0  0  0
  4  6  1  0  0  0  0
  4  9  1  0  0  0  0
  5  7  1  0  0  0  0
  5 11  1  0  0  0  0
  6  7  2  0  0  0  0
  6  8  1  0  0  0  0
  8 14  1  0  0  0  0
  8 19  2  0  0  0  0
  9 12  1  0  0  0  0
  9 35  1  0  0  0  0
  9 36  1  0  0  0  0
 10 37  1  0  0  0  0
 10 38  1  0  0  0  0
 10 39  1  0  0  0  0
 11 40  1  0  0  0  0
 11 41  1  0  0  0  0
 11 42  1  0  0  0  0
 12 13  1  0  0  0  0
 12 15  1  0  0  0  0
 12 43  1  0  0  0  0
 13 20  1  0  0  0  0
 13 44  1  0  0  0  0
 13 45  1  0  0  0  0
 14 16  2  0  0  0  0
 14 46  1  0  0  0  0
 15 18  2  0  0  0  0
 15 25  1  0  0  0  0
 16 17  1  0  0  0  0
 16 47  1  0  0  0  0
 17 21  2  0  0  0  0
 17 26  1  0  0  0  0
 19 21  1  0  0  0  0
 19 48  1  0  0  0  0
 20 22  1  0  0  0  0
 20 25  1  0  0  0  0
 20 49  1  0  0  0  0
 21 50  1  0  0  0  0
 22 23  2  0  0  0  0
 22 24  1  0  0  0  0
 25 51  1  0  0  0  0
 26 27  1  0  0  0  0
 27 28  2  0  0  0  0
 27 30  1  0  0  0  0
 28 29  1  0  0  0  0
 28 31  1  0  0  0  0
 29 52  1  0  0  0  0
 30 34  2  0  0  0  0
 30 53  1  0  0  0  0
 31 32  2  0  0  0  0
 31 54  1  0  0  0  0
 32 33  1  0  0  0  0
 32 34  1  0  0  0  0
 33 55  1  0  0  0  0
 34 56  1  0  0  0  0
M  CHG  1  24  -1
M  END
> <rseq>
1

> <mseq>
385

> <S>
-6.519198

> <rmsd_refine>
1.357514

> <E_conf>
-71.45795

> <E_score1>
-10.9418

> <E_refine>
-34.99936

> <E_score2>
-6.519198

>  <$File>
outputs/pdb_4j58_cleaned.pdb_2024_06_17__22_47_40_V2_BS398_MIN1_/SDF/sdf_db.sdf

> <Rec_index>
1

>  <PLIF_raw>
[[33,23,2,4,6,7,5,3,2,4,6,7,5,3],[2222,1872,954,954,954,954,954,954,1519,1519,1519,1519,1519,1519],[148,125,62,62,62,62,62,62,102,102,102,102,102,102],[3,7,10,10,10,10,10,10,10,10,10,10,10,10],[0.7,2.921993929,1.1,1.1,1.1,1.1,1.1,1.1,0.5,0.5,0.5,0.5,0.5,0.5]]

> <FP:PLIF>
21 30 22 13 39

>  <PLIF_ligidx>
[[2,4,6,7,5,3],[2,4,6,7,5,3],[2,4,6,7,5,3],23,33]

$$$$
385
  MOE2022           3D

 62 65  0  0  1  0  0  0  0  0999 V2000
    6.9190   20.9540   19.3870 C   0  0  0  0  0  0  0  0  0  0  0  0
    6.1120   19.8760   19.0440 C   0  0  0  0  0  0  0  0  0  0  0  0
    4.8760   20.1010   18.4380 C   0  0  0  0  0  0  0  0  0  0  0  0
    4.1150   18.9880   18.0990 O   0  0  0  0  0  0  0  0  0  0  0  0
    2.9640   18.9610   17.1870 C   0  0  1  0  0  0  0  0  0  0  0  0
    4.4390   21.4050   18.1870 C   0  0  0  0  0  0  0  0  0  0  0  0
    6.4930   22.2550   19.1310 C   0  0  0  0  0  0  0  0  0  0  0  0
    5.2540   22.4780   18.5350 C   0  0  0  0  0  0  0  0  0  0  0  0
    3.4090   19.0130   15.7270 C   0  0  0  0  0  0  0  0  0  0  0  0
    4.2160   19.8780   15.3880 O   0  0  0  0  0  0  0  0  0  0  0  0
    2.0470   17.7740   17.5280 C   0  0  2  0  0  0  0  0  0  0  0  0
    2.8600   18.1770   14.8080 N   0  0  0  0  0  0  0  0  0  0  0  0
    1.0030   17.5260   16.4140 C   0  0  2  0  0  0  0  0  0  0  0  0
    1.8420   17.1390   15.1500 C   0  0  1  0  0  0  0  0  0  0  0  0
    1.4350   18.0110   18.7820 O   0  0  0  0  0  0  0  0  0  0  0  0
    3.2180   18.3170   13.3850 C   0  0  0  0  0  0  0  0  0  0  0  0
    0.2140   18.7570   16.1410 N   0  0  0  0  0  0  0  0  0  0  0  0
    0.0540   16.3900   16.8720 C   0  0  0  0  0  0  0  0  0  0  0  0
   -1.1170   16.2970   16.0900 O   0  0  0  0  0  0  0  0  0  0  0  0
    1.0110   16.8410   13.9620 O   0  0  0  0  0  0  0  0  0  0  0  0
    0.6500   15.4400   13.6590 C   0  0  2  0  0  0  0  0  0  0  0  0
    1.8330   14.5880   13.1290 C   0  0  0  0  0  0  0  0  0  0  0  0
   -0.6420   15.3970   12.8410 C   0  0  0  0  0  0  0  0  0  0  0  0
   -1.7290   15.2100   13.3800 O   0  0  0  0  0  0  0  0  0  0  0  0
    2.4110   14.8790   11.7270 C   0  0  2  0  0  0  0  0  0  0  0  0
   -0.6890   15.5840   11.5070 O   0  0  0  0  0  0  0  0  0  0  0  0
    0.3300   15.5810   10.4870 C   0  0  1  0  0  0  0  0  0  0  0  0
    3.7950   15.1300   11.8310 O   0  0  0  0  0  0  0  0  0  0  0  0
   -0.0080   16.5010    9.3140 C   0  0  0  0  0  0  0  0  0  0  0  0
    1.7210   16.0080   10.9480 C   0  0  2  0  0  0  0  0  0  0  0  0
    1.3250   16.8010    8.6820 C   0  0  0  0  0  0  0  0  0  0  0  0
    2.4310   16.4280    9.6440 C   0  0  1  0  0  0  0  0  0  0  0  0
    3.3560   17.5150    9.8770 O   0  0  0  0  0  0  0  0  0  0  0  0
    1.4820   17.0300    7.5160 O   0  0  0  0  0  0  0  0  0  0  0  0
    7.8630   20.7880   19.8380 H   0  0  0  0  0  0  0  0  0  0  0  0
    6.4410   18.8900   19.2320 H   0  0  0  0  0  0  0  0  0  0  0  0
    2.3830   19.8530   17.3750 H   0  0  0  0  0  0  0  0  0  0  0  0
    3.5020   21.5910   17.7330 H   0  0  0  0  0  0  0  0  0  0  0  0
    7.1140   23.0740   19.3890 H   0  0  0  0  0  0  0  0  0  0  0  0
    4.9330   23.4690   18.3420 H   0  0  0  0  0  0  0  0  0  0  0  0
    2.6750   16.8860   17.6210 H   0  0  0  0  0  0  0  0  0  0  0  0
    2.3780   16.2280   15.3810 H   0  0  0  0  0  0  0  0  0  0  0  0
    2.0890   18.3950   19.3750 H   0  0  0  0  0  0  0  0  0  0  0  0
    4.0210   19.0160   13.2060 H   0  0  0  0  0  0  0  0  0  0  0  0
    3.5320   17.3720   12.9710 H   0  0  0  0  0  0  0  0  0  0  0  0
    2.3770   18.6730   12.8060 H   0  0  0  0  0  0  0  0  0  0  0  0
    0.8180   19.4910   15.8010 H   0  0  0  0  0  0  0  0  0  0  0  0
   -0.2500   19.0550   16.9880 H   0  0  0  0  0  0  0  0  0  0  0  0
    0.5800   15.4400   16.8510 H   0  0  0  0  0  0  0  0  0  0  0  0
   -0.2760   16.5690   17.8950 H   0  0  0  0  0  0  0  0  0  0  0  0
   -1.4490   17.1860   15.9370 H   0  0  0  0  0  0  0  0  0  0  0  0
    0.3980   14.9980   14.6110 H   0  0  0  0  0  0  0  0  0  0  0  0
    2.6350   14.6390   13.8660 H   0  0  0  0  0  0  0  0  0  0  0  0
    1.4970   13.5530   13.1220 H   0  0  0  0  0  0  0  0  0  0  0  0
    2.3100   13.9660   11.1370 H   0  0  0  0  0  0  0  0  0  0  0  0
    0.3840   14.5640   10.0950 H   0  0  0  0  0  0  0  0  0  0  0  0
    4.2200   14.3320   12.1620 H   0  0  0  0  0  0  0  0  0  0  0  0
   -0.7020   16.0410    8.6240 H   0  0  0  0  0  0  0  0  0  0  0  0
   -0.4520   17.4180    9.6780 H   0  0  0  0  0  0  0  0  0  0  0  0
    1.6290   16.9090   11.5500 H   0  0  0  0  0  0  0  0  0  0  0  0
    2.9900   15.5990    9.2300 H   0  0  0  0  0  0  0  0  0  0  0  0
    4.0510   17.2250   10.4900 H   0  0  0  0  0  0  0  0  0  0  0  0
  1  2  1  0  0  0  0
  1  7  2  0  0  0  0
  1 35  1  0  0  0  0
  2  3  2  0  0  0  0
  2 36  1  0  0  0  0
  3  4  1  0  0  0  0
  3  6  1  0  0  0  0
  4  5  1  0  0  0  0
  5  9  1  0  0  0  0
  5 11  1  0  0  0  0
  5 37  1  0  0  0  0
  6  8  2  0  0  0  0
  6 38  1  0  0  0  0
  7  8  1  0  0  0  0
  7 39  1  0  0  0  0
  8 40  1  0  0  0  0
  9 10  2  0  0  0  0
  9 12  1  0  0  0  0
 11 13  1  0  0  0  0
 11 15  1  0  0  0  0
 11 41  1  0  0  0  0
 12 14  1  0  0  0  0
 12 16  1  0  0  0  0
 13 14  1  0  0  0  0
 13 17  1  0  0  0  0
 13 18  1  0  0  0  0
 14 20  1  0  0  0  0
 14 42  1  0  0  0  0
 15 43  1  0  0  0  0
 16 44  1  0  0  0  0
 16 45  1  0  0  0  0
 16 46  1  0  0  0  0
 17 47  1  0  0  0  0
 17 48  1  0  0  0  0
 18 19  1  0  0  0  0
 18 49  1  0  0  0  0
 18 50  1  0  0  0  0
 19 51  1  0  0  0  0
 20 21  1  0  0  0  0
 21 22  1  0  0  0  0
 21 23  1  0  0  0  0
 21 52  1  0  0  0  0
 22 25  1  0  0  0  0
 22 53  1  0  0  0  0
 22 54  1  0  0  0  0
 23 24  2  0  0  0  0
 23 26  1  0  0  0  0
 25 28  1  0  0  0  0
 25 30  1  0  0  0  0
 25 55  1  0  0  0  0
 26 27  1  0  0  0  0
 27 29  1  0  0  0  0
 27 30  1  0  0  0  0
 27 56  1  0  0  0  0
 28 57  1  0  0  0  0
 29 31  1  0  0  0  0
 29 58  1  0  0  0  0
 29 59  1  0  0  0  0
 30 32  1  0  0  0  0
 30 60  1  0  0  0  0
 31 32  1  0  0  0  0
 31 34  2  0  0  0  0
 32 33  1  0  0  0  0
 32 61  1  0  0  0  0
 33 62  1  0  0  0  0
M  END
> <rseq>
1

> <mseq>
386

> <S>
-5.54884

> <rmsd_refine>
2.180935

> <E_conf>
127.8201

> <E_score1>
-11.92918

> <E_refine>
-29.31378

> <E_score2>
-5.54884

>  <$File>
outputs/pdb_4j58_cleaned.pdb_2024_06_17__22_47_40_V2_BS398_MIN1_/SDF/sdf_db.sdf

> <Rec_index>
1

>  <PLIF_raw>
[15,1504,101,3,0.5]

> <FP:PLIF>
8

>  <PLIF_ligidx>
15

$$$$
386
  MOE2022           3D

 59 62  0  0  1  0  0  0  0  0999 V2000
    3.0390   16.8200   18.9330 O   0  0  0  0  0  0  0  0  0  0  0  0
    1.9350   16.5290   18.4750 C   0  0  0  0  0  0  0  0  0  0  0  0
    0.7770   16.3130   19.3200 C   0  0  0  0  0  0  0  0  0  0  0  0
    1.7890   16.4150   17.0910 N   0  0  0  0  0  0  0  0  0  0  0  0
   -0.4470   15.9230   18.7610 C   0  0  0  0  0  0  0  0  0  0  0  0
    0.5500   15.9990   16.5030 C   0  0  0  0  0  0  0  0  0  0  0  0
   -1.5790   15.6940   19.5590 C   0  0  0  0  0  0  0  0  0  0  0  0
   -0.5300   15.7830   17.3730 N   0  0  0  0  0  0  0  0  0  0  0  0
    0.4260   15.7870   15.1630 C   0  0  0  0  0  0  0  0  0  0  0  0
    0.8460   16.5070   20.7040 C   0  0  0  0  0  0  0  0  0  0  0  0
    1.5550   15.9620   14.2940 C   0  0  0  0  0  0  0  0  0  0  0  0
   -2.8920   15.2350   18.9540 C   0  0  0  0  0  0  0  0  0  0  0  0
    2.9840   16.6200   16.2220 C   0  0  2  0  0  0  0  0  0  0  0  0
    3.5510   17.9570   16.3840 O   0  0  0  0  0  0  0  0  0  0  0  0
    1.3510   15.7250   12.9510 O   0  0  0  0  0  0  0  0  0  0  0  0
    2.7690   16.3300   14.7500 C   0  0  0  0  0  0  0  0  0  0  0  0
    1.8220   16.6410   11.9280 C   0  0  0  0  0  0  0  0  0  0  0  0
    2.7630   19.1020   15.9350 C   0  0  0  0  0  0  0  0  0  0  0  0
    3.7000   20.2160   15.4490 C   0  0  2  0  0  0  0  0  0  0  0  0
    2.4070   15.9180   10.7150 C   0  0  0  0  0  0  0  0  0  0  0  0
    3.1450   21.5120   16.0460 C   0  0  1  0  0  0  0  0  0  0  0  0
    3.7360   15.4120   10.9690 O   0  0  0  0  0  0  0  0  0  0  0  0
    4.4330   14.8540    9.8130 C   0  0  0  0  0  0  0  0  0  0  0  0
    2.6070   21.0460   17.3960 C   0  0  2  0  0  0  0  0  0  0  0  0
    5.9320   14.7720   10.0030 C   0  0  0  0  0  0  0  0  0  0  0  0
    1.9220   19.7130   17.0700 C   0  0  1  0  0  0  0  0  0  0  0  0
    1.7360   21.9920   17.9950 O   0  0  0  0  0  0  0  0  0  0  0  0
    6.5530   15.8520   10.1090 O   0  0  0  0  0  0  0  0  0  0  0  0
    4.1560   22.4910   16.1940 O   0  0  0  0  0  0  0  0  0  0  0  0
    6.4650   13.6420    9.9930 O   0  5  0  0  0  0  0  0  0  0  0  0
   -1.4830   15.9170   20.9290 C   0  0  0  0  0  0  0  0  0  0  0  0
   -0.2800   16.3390   21.4960 C   0  0  0  0  0  0  0  0  0  0  0  0
    0.5980   19.9020   16.5980 O   0  0  0  0  0  0  0  0  0  0  0  0
    3.7710   20.2760   14.0350 O   0  0  0  0  0  0  0  0  0  0  0  0
   -1.4340   15.4990   16.9650 H   0  0  0  0  0  0  0  0  0  0  0  0
   -0.4970   15.4810   14.7440 H   0  0  0  0  0  0  0  0  0  0  0  0
    1.7610   16.7970   21.1510 H   0  0  0  0  0  0  0  0  0  0  0  0
   -3.2760   15.9890   18.2650 H   0  0  0  0  0  0  0  0  0  0  0  0
   -2.7550   14.3000   18.4100 H   0  0  0  0  0  0  0  0  0  0  0  0
   -3.6450   15.0690   19.7250 H   0  0  0  0  0  0  0  0  0  0  0  0
    3.7470   15.9320   16.5580 H   0  0  0  0  0  0  0  0  0  0  0  0
    3.6030   16.4280   14.1080 H   0  0  0  0  0  0  0  0  0  0  0  0
    0.9680   17.2330   11.5980 H   0  0  0  0  0  0  0  0  0  0  0  0
    2.5720   17.3210   12.3320 H   0  0  0  0  0  0  0  0  0  0  0  0
    2.1140   18.7810   15.1190 H   0  0  0  0  0  0  0  0  0  0  0  0
    4.6970   20.0410   15.8560 H   0  0  0  0  0  0  0  0  0  0  0  0
    1.7580   15.0890   10.4320 H   0  0  0  0  0  0  0  0  0  0  0  0
    2.4670   16.6270    9.8880 H   0  0  0  0  0  0  0  0  0  0  0  0
    2.3270   21.8910   15.4310 H   0  0  0  0  0  0  0  0  0  0  0  0
    4.0190   13.8770    9.6050 H   0  0  0  0  0  0  0  0  0  0  0  0
    4.2250   15.4880    8.9630 H   0  0  0  0  0  0  0  0  0  0  0  0
    3.4450   20.8510   18.0680 H   0  0  0  0  0  0  0  0  0  0  0  0
    1.9130   19.0790   17.9530 H   0  0  0  0  0  0  0  0  0  0  0  0
    2.2320   22.7980   18.1550 H   0  0  0  0  0  0  0  0  0  0  0  0
    4.4410   22.7660   15.3180 H   0  0  0  0  0  0  0  0  0  0  0  0
   -2.3300   15.7780   21.5510 H   0  0  0  0  0  0  0  0  0  0  0  0
   -0.2270   16.5360   22.5350 H   0  0  0  0  0  0  0  0  0  0  0  0
    0.1150   20.4020   17.2620 H   0  0  0  0  0  0  0  0  0  0  0  0
    2.8780   20.3400   13.6860 H   0  0  0  0  0  0  0  0  0  0  0  0
  1  2  2  0  0  0  0
  2  3  1  0  0  0  0
  2  4  1  0  0  0  0
  3  5  1  0  0  0  0
  3 10  2  0  0  0  0
  4  6  1  0  0  0  0
  4 13  1  0  0  0  0
  5  7  2  0  0  0  0
  5  8  1  0  0  0  0
  6  8  1  0  0  0  0
  6  9  2  0  0  0  0
  7 12  1  0  0  0  0
  7 31  1  0  0  0  0
  8 35  1  0  0  0  0
  9 11  1  0  0  0  0
  9 36  1  0  0  0  0
 10 32  1  0  0  0  0
 10 37  1  0  0  0  0
 11 15  1  0  0  0  0
 11 16  2  0  0  0  0
 12 38  1  0  0  0  0
 12 39  1  0  0  0  0
 12 40  1  0  0  0  0
 13 14  1  0  0  0  0
 13 16  1  0  0  0  0
 13 41  1  0  0  0  0
 14 18  1  0  0  0  0
 15 17  1  0  0  0  0
 16 42  1  0  0  0  0
 17 20  1  0  0  0  0
 17 43  1  0  0  0  0
 17 44  1  0  0  0  0
 18 19  1  0  0  0  0
 18 26  1  0  0  0  0
 18 45  1  0  0  0  0
 19 21  1  0  0  0  0
 19 34  1  0  0  0  0
 19 46  1  0  0  0  0
 20 22  1  0  0  0  0
 20 47  1  0  0  0  0
 20 48  1  0  0  0  0
 21 24  1  0  0  0  0
 21 29  1  0  0  0  0
 21 49  1  0  0  0  0
 22 23  1  0  0  0  0
 23 25  1  0  0  0  0
 23 50  1  0  0  0  0
 23 51  1  0  0  0  0
 24 26  1  0  0  0  0
 24 27  1  0  0  0  0
 24 52  1  0  0  0  0
 25 28  2  0  0  0  0
 25 30  1  0  0  0  0
 26 33  1  0  0  0  0
 26 53  1  0  0  0  0
 27 54  1  0  0  0  0
 29 55  1  0  0  0  0
 31 32  2  0  0  0  0
 31 56  1  0  0  0  0
 32 57  1  0  0  0  0
 33 58  1  0  0  0  0
 34 59  1  0  0  0  0
M  CHG  1  30  -1
M  END
> <rseq>
1

> <mseq>
387

> <S>
-6.424279

> <rmsd_refine>
2.448823

> <E_conf>
-59.45197

> <E_score1>
-12.97851

> <E_refine>
-36.37052

> <E_score2>
-6.424279

>  <$File>
outputs/pdb_4j58_cleaned.pdb_2024_06_17__22_47_40_V2_BS398_MIN1_/SDF/sdf_db.sdf

> <Rec_index>
1

>  <PLIF_raw>
[[14,28,28,28,3,5,7,31,32,10],[954,823,823,829,1519,1519,1519,1519,1519,1519],[62,54,54,54,102,102,102,102,102,102],[2,2,7,7,10,10,10,10,10,10],[0.7,3.7,4.77305614,0.5013761766,0.5,0.5,0.5,0.5,0.5,0.5]]

> <FP:PLIF>
6 19 1 16 20 22

>  <PLIF_ligidx>
[28,28,[28,28],28,14,[3,5,7,31,32,10]]

$$$$
387
  MOE2022           3D

 63 66  0  0  1  0  0  0  0  0999 V2000
    3.3340   17.3460   19.3870 O   0  0  0  0  0  0  0  0  0  0  0  0
    2.4210   17.6630   18.6270 C   0  0  0  0  0  0  0  0  0  0  0  0
    2.5950   18.7460   17.8030 N   0  0  0  0  0  0  0  0  0  0  0  0
    1.1550   16.9270   18.5380 C   0  0  0  0  0  0  0  0  0  0  0  0
    0.1040   17.3650   17.7130 C   0  0  0  0  0  0  0  0  0  0  0  0
   -1.0700   16.6280   17.6060 C   0  0  0  0  0  0  0  0  0  0  0  0
    0.9840   15.7360   19.2590 C   0  0  0  0  0  0  0  0  0  0  0  0
    3.8850   19.2560   17.3400 C   0  0  1  0  0  0  0  0  0  0  0  0
   -0.1890   14.9990   19.1410 C   0  0  0  0  0  0  0  0  0  0  0  0
   -1.2170   15.4430   18.3170 C   0  0  0  0  0  0  0  0  0  0  0  0
    3.8520   19.3990   15.8140 C   0  0  0  0  0  0  0  0  0  0  0  0
    3.5360   18.2980   15.0000 C   0  0  0  0  0  0  0  0  0  0  0  0
    3.3760   17.0490   15.5380 O   0  0  0  0  0  0  0  0  0  0  0  0
    3.3740   18.4240   13.6250 C   0  0  0  0  0  0  0  0  0  0  0  0
    3.5510   19.6740   13.0400 C   0  0  0  0  0  0  0  0  0  0  0  0
    4.2430   20.5520   18.0900 C   0  0  0  0  0  0  0  0  0  0  0  0
    3.3110   19.8930   11.6940 O   0  0  0  0  0  0  0  0  0  0  0  0
    3.9360   20.7690   13.8150 C   0  0  0  0  0  0  0  0  0  0  0  0
    5.2400   21.4360   17.3290 C   0  0  1  0  0  0  0  0  0  0  0  0
    4.1070   20.6320   15.1950 C   0  0  0  0  0  0  0  0  0  0  0  0
    3.7540   19.2000   10.4780 C   0  0  0  0  0  0  0  0  0  0  0  0
    4.5600   21.8330   16.0090 C   0  0  0  0  0  0  0  0  0  0  0  0
    3.5320   17.7000   10.4340 C   0  0  0  0  0  0  0  0  0  0  0  0
    5.7060   22.6670   18.1240 C   0  0  0  0  0  0  0  0  0  0  0  0
    2.4510   17.1960   10.7310 O   0  0  0  0  0  0  0  0  0  0  0  0
    4.5550   16.9670    9.9640 N   0  0  0  0  0  0  0  0  0  0  0  0
    4.9810   23.0970   19.0510 O   0  0  0  0  0  0  0  0  0  0  0  0
    6.8020   23.1650   17.7860 O   0  5  0  0  0  0  0  0  0  0  0  0
    4.5660   15.5090    9.9330 C   0  0  0  0  0  0  0  0  0  0  0  0
    6.0150   15.0010    9.9350 C   0  0  0  0  0  0  0  0  0  0  0  0
    3.8460   14.9810    8.6810 C   0  0  0  0  0  0  0  0  0  0  0  0
    6.0520   13.4670    9.9460 C   0  0  0  0  0  0  0  0  0  0  0  0
    3.8690   13.4440    8.6530 C   0  0  0  0  0  0  0  0  0  0  0  0
    5.3030   12.8970    8.7330 C   0  0  0  0  0  0  0  0  0  0  0  0
    1.7900   19.0510   17.2380 H   0  0  0  0  0  0  0  0  0  0  0  0
    0.1900   18.2620   17.1570 H   0  0  0  0  0  0  0  0  0  0  0  0
   -1.8530   16.9680   16.9800 H   0  0  0  0  0  0  0  0  0  0  0  0
    1.7600   15.3830   19.8880 H   0  0  0  0  0  0  0  0  0  0  0  0
    4.6570   18.5390   17.5650 H   0  0  0  0  0  0  0  0  0  0  0  0
   -0.3020   14.0900   19.6680 H   0  0  0  0  0  0  0  0  0  0  0  0
   -2.1090   14.8780   18.2290 H   0  0  0  0  0  0  0  0  0  0  0  0
    3.0740   16.4160   14.8570 H   0  0  0  0  0  0  0  0  0  0  0  0
    3.1040   17.5810   13.0500 H   0  0  0  0  0  0  0  0  0  0  0  0
    3.3300   21.1280   18.2580 H   0  0  0  0  0  0  0  0  0  0  0  0
    4.6580   20.2850   19.0630 H   0  0  0  0  0  0  0  0  0  0  0  0
    4.0920   21.7100   13.3510 H   0  0  0  0  0  0  0  0  0  0  0  0
    6.1240   20.8370   17.1010 H   0  0  0  0  0  0  0  0  0  0  0  0
    3.2330   19.6480    9.6430 H   0  0  0  0  0  0  0  0  0  0  0  0
    4.7940   19.4360   10.3110 H   0  0  0  0  0  0  0  0  0  0  0  0
    3.6930   22.4610   16.2220 H   0  0  0  0  0  0  0  0  0  0  0  0
    5.2660   22.4190   15.4190 H   0  0  0  0  0  0  0  0  0  0  0  0
    5.3890   17.4380    9.6460 H   0  0  0  0  0  0  0  0  0  0  0  0
    4.0600   15.1270   10.8220 H   0  0  0  0  0  0  0  0  0  0  0  0
    6.5270   15.3700    9.0460 H   0  0  0  0  0  0  0  0  0  0  0  0
    6.5340   15.3720   10.8110 H   0  0  0  0  0  0  0  0  0  0  0  0
    2.8090   15.3190    8.6850 H   0  0  0  0  0  0  0  0  0  0  0  0
    4.3340   15.3680    7.7850 H   0  0  0  0  0  0  0  0  0  0  0  0
    7.0870   13.1250    9.9310 H   0  0  0  0  0  0  0  0  0  0  0  0
    5.5840   13.1020   10.8630 H   0  0  0  0  0  0  0  0  0  0  0  0
    3.2950   13.0650    9.5000 H   0  0  0  0  0  0  0  0  0  0  0  0
    3.4000   13.0930    7.7330 H   0  0  0  0  0  0  0  0  0  0  0  0
    5.8370   13.1660    7.8220 H   0  0  0  0  0  0  0  0  0  0  0  0
    5.2710   11.8090    8.8060 H   0  0  0  0  0  0  0  0  0  0  0  0
  1  2  2  0  0  0  0
  2  3  1  0  0  0  0
  2  4  1  0  0  0  0
  3  8  1  0  0  0  0
  3 35  1  0  0  0  0
  4  5  2  0  0  0  0
  4  7  1  0  0  0  0
  5  6  1  0  0  0  0
  5 36  1  0  0  0  0
  6 10  2  0  0  0  0
  6 37  1  0  0  0  0
  7  9  2  0  0  0  0
  7 38  1  0  0  0  0
  8 11  1  0  0  0  0
  8 16  1  0  0  0  0
  8 39  1  0  0  0  0
  9 10  1  0  0  0  0
  9 40  1  0  0  0  0
 10 41  1  0  0  0  0
 11 12  1  0  0  0  0
 11 20  2  0  0  0  0
 12 13  1  0  0  0  0
 12 14  2  0  0  0  0
 13 42  1  0  0  0  0
 14 15  1  0  0  0  0
 14 43  1  0  0  0  0
 15 17  1  0  0  0  0
 15 18  2  0  0  0  0
 16 19  1  0  0  0  0
 16 44  1  0  0  0  0
 16 45  1  0  0  0  0
 17 21  1  0  0  0  0
 18 20  1  0  0  0  0
 18 46  1  0  0  0  0
 19 22  1  0  0  0  0
 19 24  1  0  0  0  0
 19 47  1  0  0  0  0
 20 22  1  0  0  0  0
 21 23  1  0  0  0  0
 21 48  1  0  0  0  0
 21 49  1  0  0  0  0
 22 50  1  0  0  0  0
 22 51  1  0  0  0  0
 23 25  2  0  0  0  0
 23 26  1  0  0  0  0
 24 27  2  0  0  0  0
 24 28  1  0  0  0  0
 26 29  1  0  0  0  0
 26 52  1  0  0  0  0
 29 30  1  0  0  0  0
 29 31  1  0  0  0  0
 29 53  1  0  0  0  0
 30 32  1  0  0  0  0
 30 54  1  0  0  0  0
 30 55  1  0  0  0  0
 31 33  1  0  0  0  0
 31 56  1  0  0  0  0
 31 57  1  0  0  0  0
 32 34  1  0  0  0  0
 32 58  1  0  0  0  0
 32 59  1  0  0  0  0
 33 34  1  0  0  0  0
 33 60  1  0  0  0  0
 33 61  1  0  0  0  0
 34 62  1  0  0  0  0
 34 63  1  0  0  0  0
M  CHG  1  28  -1
M  END
> <rseq>
1

> <mseq>
388

> <S>
-6.549127

> <rmsd_refine>
1.565695

> <E_conf>
-134.4113

> <E_score1>
-11.32471

> <E_refine>
-36.08038

> <E_score2>
-6.549127

>  <$File>
outputs/pdb_4j58_cleaned.pdb_2024_06_17__22_47_40_V2_BS398_MIN1_/SDF/sdf_db.sdf

> <Rec_index>
1

>  <PLIF_raw>
[[26,27],[2222,1872],[148,125],[3,7],[1.6,3.68824995]]

> <FP:PLIF>
13 31 39 40

>  <PLIF_ligidx>
[27,27,26,26]

$$$$
388
  MOE2022           3D

 66 67  0  0  1  0  0  0  0  0999 V2000
    6.6210   20.9970   19.2470 C   0  0  0  0  0  0  0  0  0  0  0  0
    5.7740   19.9440   18.9260 C   0  0  0  0  0  0  0  0  0  0  0  0
    6.2620   22.3010   18.9220 C   0  0  0  0  0  0  0  0  0  0  0  0
    5.0510   22.5480   18.2890 C   0  0  0  0  0  0  0  0  0  0  0  0
    4.5560   20.1680   18.2710 C   0  0  0  0  0  0  0  0  0  0  0  0
    4.1820   21.4980   17.9690 C   0  0  0  0  0  0  0  0  0  0  0  0
    2.9050   21.8140   17.3480 C   0  0  0  0  0  0  0  0  0  0  0  0
    1.8340   21.7250   17.9400 O   0  0  0  0  0  0  0  0  0  0  0  0
    2.9260   22.2260   16.0390 N   0  0  0  0  0  0  0  0  0  0  0  0
    3.7280   19.0140   17.9200 C   0  0  0  0  0  0  0  0  0  0  0  0
    3.2130   18.9370   16.6360 N   0  0  0  0  0  0  0  0  0  0  0  0
    3.5250   18.0850   18.6960 O   0  0  0  0  0  0  0  0  0  0  0  0
    1.7190   22.4740   15.2500 C   0  0  0  0  0  0  0  0  0  0  0  0
    1.1400   21.2170   14.5890 C   0  0  0  0  0  0  0  0  0  0  0  0
    2.4750   17.8410   16.1140 C   0  0  0  0  0  0  0  0  0  0  0  0
    2.1050   20.5860   13.5700 C   0  0  0  0  0  0  0  0  0  0  0  0
    3.0390   17.1780   15.0270 C   0  0  0  0  0  0  0  0  0  0  0  0
    2.4010   16.0720   14.4760 C   0  0  0  0  0  0  0  0  0  0  0  0
    1.4950   19.3970   12.7980 C   0  0  1  0  0  0  0  0  0  0  0  0
    0.4080   19.8550   11.9640 O   0  0  0  0  0  0  0  0  0  0  0  0
    3.0550   15.3470   13.3160 C   0  0  0  0  0  0  0  0  0  0  0  0
    1.2350   17.4410   16.6410 C   0  0  0  0  0  0  0  0  0  0  0  0
    2.1150   14.7190   12.2810 C   0  0  0  0  0  0  0  0  0  0  0  0
    0.5710   18.2160   17.7660 C   0  0  0  0  0  0  0  0  0  0  0  0
    2.4930   18.6170   11.9600 C   0  0  0  0  0  0  0  0  0  0  0  0
    0.6120   16.3110   16.0980 C   0  0  0  0  0  0  0  0  0  0  0  0
    3.6280   18.9750   11.8030 O   0  0  0  0  0  0  0  0  0  0  0  0
    2.9100   14.3270   11.0390 C   0  0  0  0  0  0  0  0  0  0  0  0
    3.3180   13.0500   10.9210 O   0  0  0  0  0  0  0  0  0  0  0  0
    4.2060   12.6010    9.8640 C   0  0  0  0  0  0  0  0  0  0  0  0
    3.2300   15.1810   10.2120 O   0  0  0  0  0  0  0  0  0  0  0  0
   -0.7030   15.7850   16.6460 C   0  0  0  0  0  0  0  0  0  0  0  0
    1.1970   15.6370   15.0250 C   0  0  0  0  0  0  0  0  0  0  0  0
    5.6740   12.9220   10.1560 C   0  0  0  0  0  0  0  0  0  0  0  0
    7.5440   20.8080   19.7340 H   0  0  0  0  0  0  0  0  0  0  0  0
    6.0640   18.9570   19.1710 H   0  0  0  0  0  0  0  0  0  0  0  0
    6.9130   23.1030   19.1590 H   0  0  0  0  0  0  0  0  0  0  0  0
    4.7790   23.5450   18.0530 H   0  0  0  0  0  0  0  0  0  0  0  0
    3.8290   22.2650   15.5450 H   0  0  0  0  0  0  0  0  0  0  0  0
    3.4630   19.6950   15.9840 H   0  0  0  0  0  0  0  0  0  0  0  0
    0.9490   22.9120   15.8870 H   0  0  0  0  0  0  0  0  0  0  0  0
    1.9490   23.2030   14.4720 H   0  0  0  0  0  0  0  0  0  0  0  0
    0.8940   20.4850   15.3590 H   0  0  0  0  0  0  0  0  0  0  0  0
    0.2170   21.5000   14.0810 H   0  0  0  0  0  0  0  0  0  0  0  0
    2.4120   21.3450   12.8480 H   0  0  0  0  0  0  0  0  0  0  0  0
    2.9910   20.2360   14.0980 H   0  0  0  0  0  0  0  0  0  0  0  0
    3.9560   17.5230   14.6260 H   0  0  0  0  0  0  0  0  0  0  0  0
    1.0540   18.7120   13.5100 H   0  0  0  0  0  0  0  0  0  0  0  0
   -0.0500   19.1000   11.5590 H   0  0  0  0  0  0  0  0  0  0  0  0
    3.6860   16.0640   12.7920 H   0  0  0  0  0  0  0  0  0  0  0  0
    3.6940   14.5640   13.7210 H   0  0  0  0  0  0  0  0  0  0  0  0
    1.6410   13.8320   12.7020 H   0  0  0  0  0  0  0  0  0  0  0  0
    1.3440   15.4360   11.9970 H   0  0  0  0  0  0  0  0  0  0  0  0
    0.9290   19.2420   17.8120 H   0  0  0  0  0  0  0  0  0  0  0  0
   -0.5050   18.2770   17.6160 H   0  0  0  0  0  0  0  0  0  0  0  0
    0.7690   17.7370   18.7250 H   0  0  0  0  0  0  0  0  0  0  0  0
    2.1590   17.7220   11.4990 H   0  0  0  0  0  0  0  0  0  0  0  0
    4.0970   11.5210    9.7630 H   0  0  0  0  0  0  0  0  0  0  0  0
    3.9110   13.0650    8.9210 H   0  0  0  0  0  0  0  0  0  0  0  0
   -0.6480   15.6620   17.7280 H   0  0  0  0  0  0  0  0  0  0  0  0
   -1.5170   16.4720   16.4120 H   0  0  0  0  0  0  0  0  0  0  0  0
   -0.9530   14.8140   16.2180 H   0  0  0  0  0  0  0  0  0  0  0  0
    0.7170   14.7800   14.6280 H   0  0  0  0  0  0  0  0  0  0  0  0
    5.8080   14.0000   10.2510 H   0  0  0  0  0  0  0  0  0  0  0  0
    5.9780   12.4380   11.0840 H   0  0  0  0  0  0  0  0  0  0  0  0
    6.2960   12.5550    9.3400 H   0  0  0  0  0  0  0  0  0  0  0  0
  1  2  1  0  0  0  0
  1  3  2  0  0  0  0
  1 35  1  0  0  0  0
  2  5  2  0  0  0  0
  2 36  1  0  0  0  0
  3  4  1  0  0  0  0
  3 37  1  0  0  0  0
  4  6  2  0  0  0  0
  4 38  1  0  0  0  0
  5  6  1  0  0  0  0
  5 10  1  0  0  0  0
  6  7  1  0  0  0  0
  7  8  2  0  0  0  0
  7  9  1  0  0  0  0
  9 13  1  0  0  0  0
  9 39  1  0  0  0  0
 10 11  1  0  0  0  0
 10 12  2  0  0  0  0
 11 15  1  0  0  0  0
 11 40  1  0  0  0  0
 13 14  1  0  0  0  0
 13 41  1  0  0  0  0
 13 42  1  0  0  0  0
 14 16  1  0  0  0  0
 14 43  1  0  0  0  0
 14 44  1  0  0  0  0
 15 17  2  0  0  0  0
 15 22  1  0  0  0  0
 16 19  1  0  0  0  0
 16 45  1  0  0  0  0
 16 46  1  0  0  0  0
 17 18  1  0  0  0  0
 17 47  1  0  0  0  0
 18 21  1  0  0  0  0
 18 33  2  0  0  0  0
 19 20  1  0  0  0  0
 19 25  1  0  0  0  0
 19 48  1  0  0  0  0
 20 49  1  0  0  0  0
 21 23  1  0  0  0  0
 21 50  1  0  0  0  0
 21 51  1  0  0  0  0
 22 24  1  0  0  0  0
 22 26  2  0  0  0  0
 23 28  1  0  0  0  0
 23 52  1  0  0  0  0
 23 53  1  0  0  0  0
 24 54  1  0  0  0  0
 24 55  1  0  0  0  0
 24 56  1  0  0  0  0
 25 27  2  0  0  0  0
 25 57  1  0  0  0  0
 26 32  1  0  0  0  0
 26 33  1  0  0  0  0
 28 29  1  0  0  0  0
 28 31  2  0  0  0  0
 29 30  1  0  0  0  0
 30 34  1  0  0  0  0
 30 58  1  0  0  0  0
 30 59  1  0  0  0  0
 32 60  1  0  0  0  0
 32 61  1  0  0  0  0
 32 62  1  0  0  0  0
 33 63  1  0  0  0  0
 34 64  1  0  0  0  0
 34 65  1  0  0  0  0
 34 66  1  0  0  0  0
M  END
> <rseq>
1

> <mseq>
389

> <S>
-6.064106

> <rmsd_refine>
1.298276

> <E_conf>
-51.23627

> <E_score1>
-8.474947

> <E_refine>
-31.43632

> <E_score2>
-6.064106

>  <$File>
outputs/pdb_4j58_cleaned.pdb_2024_06_17__22_47_40_V2_BS398_MIN1_/SDF/sdf_db.sdf

> <Rec_index>
1

>  <PLIF_raw>
[[1,1,1,1,1,1,15,22,26,33,18,17],[1651,1655,1659,1657,1653,1650,954,954,954,954,954,954],[112,112,112,112,112,112,62,62,62,62,62,62],[10,10,10,10,10,10,10,10,10,10,10,10],[0.5,0.5,0.5,0.5,0.5,0.5,0.5,0.5,0.5,0.5,0.5,0.5]]

> <FP:PLIF>
21 15

>  <PLIF_ligidx>
[[15,22,26,33,18,17],[1,1,1,1,1,1]]

$$$$
389
  MOE2022           3D

 58 62  0  0  1  0  0  0  0  0999 V2000
    5.5200   15.2250    9.6590 C   0  0  0  0  0  0  0  0  0  0  0  0
    5.1860   15.9810    8.5430 C   0  0  0  0  0  0  0  0  0  0  0  0
    4.5650   15.0500   10.6530 C   0  0  0  0  0  0  0  0  0  0  0  0
    6.0980   16.1550    7.5760 F   0  0  0  0  0  0  0  0  0  0  0  0
    3.2930   15.6390   10.5390 C   0  0  0  0  0  0  0  0  0  0  0  0
    2.3100   15.4970   11.5920 C   0  0  0  0  0  0  0  0  0  0  0  0
    3.9350   16.5620    8.3880 C   0  0  0  0  0  0  0  0  0  0  0  0
    2.9890   16.3850    9.3890 C   0  0  0  0  0  0  0  0  0  0  0  0
    2.6430   15.5920   12.9310 N   0  0  0  0  0  0  0  0  0  0  0  0
    0.9520   15.3030   11.5450 C   0  0  0  0  0  0  0  0  0  0  0  0
    1.5160   15.4760   13.6960 C   0  0  0  0  0  0  0  0  0  0  0  0
    1.5600   15.5580   15.1100 N   0  0  0  0  0  0  0  0  0  0  0  0
    0.4560   15.2820   12.8500 C   0  0  0  0  0  0  0  0  0  0  0  0
    0.4030   16.1570   15.7660 C   0  0  0  0  0  0  0  0  0  0  0  0
    2.7080   16.2060   15.7450 C   0  0  0  0  0  0  0  0  0  0  0  0
    2.3300   17.6670   16.0770 C   0  0  2  0  0  0  0  0  0  0  0  0
    3.0570   18.1120   17.3700 C   0  0  1  0  0  0  0  0  0  0  0  0
    0.7920   17.5630   16.2490 C   0  0  2  0  0  0  0  0  0  0  0  0
    2.7650   18.5800   14.9060 C   0  0  0  0  0  0  0  0  0  0  0  0
    3.8650   18.3310   14.3630 O   0  5  0  0  0  0  0  0  0  0  0  0
    2.9540   19.5520   17.5710 O   0  0  0  0  0  0  0  0  0  0  0  0
    3.9780   20.3470   18.0630 C   0  0  0  0  0  0  0  0  0  0  0  0
    3.9240   21.7100   17.7820 C   0  0  0  0  0  0  0  0  0  0  0  0
    4.9360   22.5470   18.2430 C   0  0  0  0  0  0  0  0  0  0  0  0
    5.0300   19.8190   18.8170 C   0  0  0  0  0  0  0  0  0  0  0  0
    6.0390   20.6620   19.2730 C   0  0  0  0  0  0  0  0  0  0  0  0
    5.9950   22.0240   18.9840 C   0  0  0  0  0  0  0  0  0  0  0  0
    2.5790   17.3490   18.6340 C   0  0  0  0  0  0  0  0  0  0  0  0
    2.0390   19.5490   14.5920 O   0  0  0  0  0  0  0  0  0  0  0  0
    1.1230   17.1140   18.6970 N   0  0  0  0  0  0  0  0  0  0  0  0
    0.6260   16.1350   19.5480 C   0  0  0  0  0  0  0  0  0  0  0  0
    1.3120   15.6000   20.4230 O   0  0  0  0  0  0  0  0  0  0  0  0
    0.3180   17.8300   17.6870 C   0  0  0  0  0  0  0  0  0  0  0  0
   -0.6780   15.7650   19.3910 N   0  0  0  0  0  0  0  0  0  0  0  0
    6.4800   14.7860    9.7460 H   0  0  0  0  0  0  0  0  0  0  0  0
    4.7950   14.4600   11.5020 H   0  0  0  0  0  0  0  0  0  0  0  0
    3.7080   17.1310    7.5240 H   0  0  0  0  0  0  0  0  0  0  0  0
    2.0310   16.8270    9.2900 H   0  0  0  0  0  0  0  0  0  0  0  0
    3.5870   15.7750   13.3060 H   0  0  0  0  0  0  0  0  0  0  0  0
    0.3810   15.1920   10.6600 H   0  0  0  0  0  0  0  0  0  0  0  0
   -0.5530   15.1450   13.1370 H   0  0  0  0  0  0  0  0  0  0  0  0
   -0.4660   16.1980   15.1250 H   0  0  0  0  0  0  0  0  0  0  0  0
    0.1260   15.5320   16.6040 H   0  0  0  0  0  0  0  0  0  0  0  0
    2.9170   15.6630   16.6540 H   0  0  0  0  0  0  0  0  0  0  0  0
    3.6200   16.1100   15.1760 H   0  0  0  0  0  0  0  0  0  0  0  0
    4.1140   17.9210   17.2170 H   0  0  0  0  0  0  0  0  0  0  0  0
    0.2640   18.2690   15.6080 H   0  0  0  0  0  0  0  0  0  0  0  0
    3.1180   22.1030   17.2160 H   0  0  0  0  0  0  0  0  0  0  0  0
    4.9030   23.5840   18.0270 H   0  0  0  0  0  0  0  0  0  0  0  0
    5.0650   18.7890   19.0490 H   0  0  0  0  0  0  0  0  0  0  0  0
    6.8430   20.2670   19.8390 H   0  0  0  0  0  0  0  0  0  0  0  0
    6.7680   22.6620   19.3260 H   0  0  0  0  0  0  0  0  0  0  0  0
    3.0790   16.3920   18.6670 H   0  0  0  0  0  0  0  0  0  0  0  0
    2.9050   17.8670   19.5240 H   0  0  0  0  0  0  0  0  0  0  0  0
    0.3930   18.8920   17.8790 H   0  0  0  0  0  0  0  0  0  0  0  0
   -0.7380   17.6160   17.7640 H   0  0  0  0  0  0  0  0  0  0  0  0
   -1.2220   16.1430   18.6030 H   0  0  0  0  0  0  0  0  0  0  0  0
   -1.0460   14.9570   19.9110 H   0  0  0  0  0  0  0  0  0  0  0  0
  1  2  2  0  0  0  0
  1  3  1  0  0  0  0
  1 35  1  0  0  0  0
  2  4  1  0  0  0  0
  2  7  1  0  0  0  0
  3  5  2  0  0  0  0
  3 36  1  0  0  0  0
  5  6  1  0  0  0  0
  5  8  1  0  0  0  0
  6  9  1  0  0  0  0
  6 10  2  0  0  0  0
  7  8  2  0  0  0  0
  7 37  1  0  0  0  0
  8 38  1  0  0  0  0
  9 11  1  0  0  0  0
  9 39  1  0  0  0  0
 10 13  1  0  0  0  0
 10 40  1  0  0  0  0
 11 12  1  0  0  0  0
 11 13  2  0  0  0  0
 12 14  1  0  0  0  0
 12 15  1  0  0  0  0
 13 41  1  0  0  0  0
 14 18  1  0  0  0  0
 14 42  1  0  0  0  0
 14 43  1  0  0  0  0
 15 16  1  0  0  0  0
 15 44  1  0  0  0  0
 15 45  1  0  0  0  0
 16 17  1  0  0  0  0
 16 18  1  0  0  0  0
 16 19  1  0  0  0  0
 17 21  1  0  0  0  0
 17 28  1  0  0  0  0
 17 46  1  0  0  0  0
 18 33  1  0  0  0  0
 18 47  1  0  0  0  0
 19 20  1  0  0  0  0
 19 29  2  0  0  0  0
 21 22  1  0  0  0  0
 22 23  2  0  0  0  0
 22 25  1  0  0  0  0
 23 24  1  0  0  0  0
 23 48  1  0  0  0  0
 24 27  2  0  0  0  0
 24 49  1  0  0  0  0
 25 26  2  0  0  0  0
 25 50  1  0  0  0  0
 26 27  1  0  0  0  0
 26 51  1  0  0  0  0
 27 52  1  0  0  0  0
 28 30  1  0  0  0  0
 28 53  1  0  0  0  0
 28 54  1  0  0  0  0
 30 31  1  0  0  0  0
 30 33  1  0  0  0  0
 31 32  2  0  0  0  0
 31 34  1  0  0  0  0
 33 55  1  0  0  0  0
 33 56  1  0  0  0  0
 34 57  1  0  0  0  0
 34 58  1  0  0  0  0
M  CHG  1  20  -1
M  END
> <rseq>
1

> <mseq>
390

> <S>
-6.421057

> <rmsd_refine>
1.26361

> <E_conf>
-154.5195

> <E_score1>
-11.93266

> <E_refine>
-29.443

> <E_score2>
-6.421057

>  <$File>
outputs/pdb_4j58_cleaned.pdb_2024_06_17__22_47_40_V2_BS398_MIN1_/SDF/sdf_db.sdf

> <Rec_index>
1

>  <PLIF_raw>
[[32,20,20,20,22,25,26,27,24,23],[1212,823,826,829,1499,1499,1499,1499,1499,1499],[81,54,54,54,101,101,101,101,101,101],[2,7,7,7,10,10,10,10,10,10],[0.8,2.955115395,4.132918852,0.8644357004,0.5,0.5,0.5,0.5,0.5,0.5]]

> <FP:PLIF>
1 16 17 44

>  <PLIF_ligidx>
[[20,20,20],20,32,[22,25,26,27,24,23]]

$$$$
390
  MOE2022           3D

 56 59  0  0  1  0  0  0  0  0999 V2000
    3.3400   17.2900   19.5300 O   0  0  0  0  0  0  0  0  0  0  0  0
    2.2980   16.9320   18.9700 C   0  0  0  0  0  0  0  0  0  0  0  0
    1.1830   16.3250   19.6470 C   0  0  0  0  0  0  0  0  0  0  0  0
    2.1790   17.1030   17.5890 N   0  0  0  0  0  0  0  0  0  0  0  0
    0.1180   15.8910   18.9170 C   0  0  0  0  0  0  0  0  0  0  0  0
    1.1760   16.3990   16.8950 C   0  0  0  0  0  0  0  0  0  0  0  0
    0.1570   15.9120   17.5430 N   0  0  0  0  0  0  0  0  0  0  0  0
    1.3400   16.1440   15.4670 C   0  0  0  0  0  0  0  0  0  0  0  0
    3.0830   18.0360   16.8430 C   0  0  0  0  0  0  0  0  0  0  0  0
    1.2330   16.1670   21.1570 C   0  0  0  0  0  0  0  0  0  0  0  0
   -1.1280   15.2760   19.5240 C   0  0  0  0  0  0  0  0  0  0  0  0
    3.1950   19.4830   17.3810 C   0  0  1  0  0  0  0  0  0  0  0  0
    4.4900   19.7650   18.1770 C   0  0  0  0  0  0  0  0  0  0  0  0
    0.2770   16.3250   14.5690 C   0  0  0  0  0  0  0  0  0  0  0  0
    3.2760   20.5410   16.2830 C   0  0  0  0  0  0  0  0  0  0  0  0
    0.4240   16.0030   13.2240 C   0  0  0  0  0  0  0  0  0  0  0  0
    1.6430   15.5010   12.7690 C   0  0  0  0  0  0  0  0  0  0  0  0
    2.6790   20.4880   15.2100 O   0  0  0  0  0  0  0  0  0  0  0  0
    2.5560   15.6310   14.9840 C   0  0  0  0  0  0  0  0  0  0  0  0
    4.6490   21.2780   17.9790 C   0  0  1  0  0  0  0  0  0  0  0  0
    2.7100   15.3080   13.6460 C   0  0  0  0  0  0  0  0  0  0  0  0
    6.0890   21.7700   18.1920 C   0  0  0  0  0  0  0  0  0  0  0  0
    6.3110   22.4100   19.2450 O   0  0  0  0  0  0  0  0  0  0  0  0
    6.9380   21.4970   17.3130 O   0  5  0  0  0  0  0  0  0  0  0  0
    4.1380   21.4860   16.6350 N   0  0  0  0  0  0  0  0  0  0  0  0
    1.7640   15.1950   11.4320 O   0  0  0  0  0  0  0  0  0  0  0  0
    2.9380   15.4430   10.7410 C   0  0  0  0  0  0  0  0  0  0  0  0
    3.0940   16.6590   10.0750 C   0  0  0  0  0  0  0  0  0  0  0  0
    2.0900   17.6030   10.1310 O   0  0  0  0  0  0  0  0  0  0  0  0
    4.2730   16.9020    9.3630 C   0  0  0  0  0  0  0  0  0  0  0  0
    3.9460   14.4780   10.7100 C   0  0  0  0  0  0  0  0  0  0  0  0
    4.4430   18.0670    8.6590 O   0  0  0  0  0  0  0  0  0  0  0  0
    5.2950   15.9520    9.3420 C   0  0  0  0  0  0  0  0  0  0  0  0
    5.1290   14.7430   10.0180 C   0  0  0  0  0  0  0  0  0  0  0  0
    4.0660   17.6080   16.7320 H   0  0  0  0  0  0  0  0  0  0  0  0
    2.7420   18.1210   15.8230 H   0  0  0  0  0  0  0  0  0  0  0  0
    0.4940   16.7900   21.6400 H   0  0  0  0  0  0  0  0  0  0  0  0
    1.0450   15.1430   21.4370 H   0  0  0  0  0  0  0  0  0  0  0  0
    2.2000   16.4140   21.5700 H   0  0  0  0  0  0  0  0  0  0  0  0
   -1.3410   15.6520   20.5140 H   0  0  0  0  0  0  0  0  0  0  0  0
   -1.9990   15.4860   18.9180 H   0  0  0  0  0  0  0  0  0  0  0  0
   -1.0360   14.2010   19.5850 H   0  0  0  0  0  0  0  0  0  0  0  0
    2.3190   19.7060   17.9920 H   0  0  0  0  0  0  0  0  0  0  0  0
    4.4130   19.5160   19.2330 H   0  0  0  0  0  0  0  0  0  0  0  0
    5.3350   19.2500   17.7200 H   0  0  0  0  0  0  0  0  0  0  0  0
   -0.6490   16.7030   14.9190 H   0  0  0  0  0  0  0  0  0  0  0  0
   -0.3810   16.1390   12.5490 H   0  0  0  0  0  0  0  0  0  0  0  0
    3.3620   15.4700   15.6530 H   0  0  0  0  0  0  0  0  0  0  0  0
    3.9930   21.7960   18.6800 H   0  0  0  0  0  0  0  0  0  0  0  0
    3.6250   14.9050   13.3050 H   0  0  0  0  0  0  0  0  0  0  0  0
    4.4020   22.2710   16.0590 H   0  0  0  0  0  0  0  0  0  0  0  0
    2.3460   18.4370    9.6960 H   0  0  0  0  0  0  0  0  0  0  0  0
    3.8170   13.5540   11.2120 H   0  0  0  0  0  0  0  0  0  0  0  0
    3.6340   18.6110    8.6600 H   0  0  0  0  0  0  0  0  0  0  0  0
    6.1890   16.1450    8.8070 H   0  0  0  0  0  0  0  0  0  0  0  0
    5.9020   14.0180   10.0000 H   0  0  0  0  0  0  0  0  0  0  0  0
  1  2  2  0  0  0  0
  2  3  1  0  0  0  0
  2  4  1  0  0  0  0
  3  5  2  0  0  0  0
  3 10  1  0  0  0  0
  4  6  1  0  0  0  0
  4  9  1  0  0  0  0
  5  7  1  0  0  0  0
  5 11  1  0  0  0  0
  6  7  2  0  0  0  0
  6  8  1  0  0  0  0
  8 14  1  0  0  0  0
  8 19  2  0  0  0  0
  9 12  1  0  0  0  0
  9 35  1  0  0  0  0
  9 36  1  0  0  0  0
 10 37  1  0  0  0  0
 10 38  1  0  0  0  0
 10 39  1  0  0  0  0
 11 40  1  0  0  0  0
 11 41  1  0  0  0  0
 11 42  1  0  0  0  0
 12 13  1  0  0  0  0
 12 15  1  0  0  0  0
 12 43  1  0  0  0  0
 13 20  1  0  0  0  0
 13 44  1  0  0  0  0
 13 45  1  0  0  0  0
 14 16  2  0  0  0  0
 14 46  1  0  0  0  0
 15 18  2  0  0  0  0
 15 25  1  0  0  0  0
 16 17  1  0  0  0  0
 16 47  1  0  0  0  0
 17 21  2  0  0  0  0
 17 26  1  0  0  0  0
 19 21  1  0  0  0  0
 19 48  1  0  0  0  0
 20 22  1  0  0  0  0
 20 25  1  0  0  0  0
 20 49  1  0  0  0  0
 21 50  1  0  0  0  0
 22 23  2  0  0  0  0
 22 24  1  0  0  0  0
 25 51  1  0  0  0  0
 26 27  1  0  0  0  0
 27 28  1  0  0  0  0
 27 31  2  0  0  0  0
 28 29  1  0  0  0  0
 28 30  2  0  0  0  0
 29 52  1  0  0  0  0
 30 32  1  0  0  0  0
 30 33  1  0  0  0  0
 31 34  1  0  0  0  0
 31 53  1  0  0  0  0
 32 54  1  0  0  0  0
 33 34  2  0  0  0  0
 33 55  1  0  0  0  0
 34 56  1  0  0  0  0
M  CHG  1  24  -1
M  END
> <rseq>
1

> <mseq>
391

> <S>
-6.526203

> <rmsd_refine>
1.435414

> <E_conf>
-48.11886

> <E_score1>
-10.21109

> <E_refine>
-34.21991

> <E_score2>
-6.526203

>  <$File>
outputs/pdb_4j58_cleaned.pdb_2024_06_17__22_47_40_V2_BS398_MIN1_/SDF/sdf_db.sdf

> <Rec_index>
1

>  <PLIF_raw>
[[23,27,28,30,33,34,31,2,4,6,7,5,3,2,4,6,7,5,3],[1872,823,823,823,823,823,823,954,954,954,954,954,954,1519,1519,1519,1519,1519,1519],[125,54,54,54,54,54,54,62,62,62,62,62,62,102,102,102,102,102,102],[7,10,10,10,10,10,10,10,10,10,10,10,10,10,10,10,10,10,10],[2.952355081,0.6,0.6,0.6,0.6,0.6,0.6,1.4,1.4,1.4,1.4,1.4,1.4,0.5,0.5,0.5,0.5,0.5,0.5]]

> <FP:PLIF>
2 21 30 22 13

>  <PLIF_ligidx>
[[27,28,30,33,34,31],[2,4,6,7,5,3],[2,4,6,7,5,3],[2,4,6,7,5,3],23]

$$$$
391
  MOE2022           3D

 64 67  0  0  1  0  0  0  0  0999 V2000
    3.5590   17.6670   19.7100 O   0  0  0  0  0  0  0  0  0  0  0  0
    2.6220   17.2980   18.9930 C   0  0  0  0  0  0  0  0  0  0  0  0
    1.5330   16.4780   19.4480 C   0  0  0  0  0  0  0  0  0  0  0  0
    2.6150   17.6830   17.6480 N   0  0  0  0  0  0  0  0  0  0  0  0
    0.5640   16.1090   18.5640 C   0  0  0  0  0  0  0  0  0  0  0  0
    1.6180   17.2040   16.7830 C   0  0  0  0  0  0  0  0  0  0  0  0
    0.6390   16.4780   17.2400 N   0  0  0  0  0  0  0  0  0  0  0  0
    1.7330   17.5070   15.3670 C   0  0  0  0  0  0  0  0  0  0  0  0
    3.6830   18.6050   17.1600 C   0  0  0  0  0  0  0  0  0  0  0  0
    1.4950   16.0450   20.9060 C   0  0  0  0  0  0  0  0  0  0  0  0
   -0.6230   15.2480   18.9470 C   0  0  0  0  0  0  0  0  0  0  0  0
    3.4110   20.1100   17.3480 C   0  0  1  0  0  0  0  0  0  0  0  0
    4.6330   20.8190   17.8540 C   0  0  0  0  0  0  0  0  0  0  0  0
    0.9700   18.5320   14.7880 C   0  0  0  0  0  0  0  0  0  0  0  0
    3.1680   20.8590   16.0260 C   0  0  0  0  0  0  0  0  0  0  0  0
    1.1220   18.8520   13.4440 C   0  0  0  0  0  0  0  0  0  0  0  0
    2.0440   18.1480   12.6660 C   0  0  0  0  0  0  0  0  0  0  0  0
    2.1790   18.4980   11.3500 O   0  0  0  0  0  0  0  0  0  0  0  0
    2.6160   16.7820   14.5450 C   0  0  0  0  0  0  0  0  0  0  0  0
    3.3150   15.7310   15.0620 O   0  0  0  0  0  0  0  0  0  0  0  0
    4.2560   21.8350   15.8390 O   0  0  0  0  0  0  0  0  0  0  0  0
    3.4700   18.8300   10.7830 C   0  0  0  0  0  0  0  0  0  0  0  0
    2.7930   17.1030   13.2040 C   0  0  0  0  0  0  0  0  0  0  0  0
    5.0570   21.7680   16.9470 C   0  0  0  0  0  0  0  0  0  0  0  0
    6.1860   22.5480   17.1700 C   0  0  0  0  0  0  0  0  0  0  0  0
    6.9040   22.3520   18.3480 C   0  0  0  0  0  0  0  0  0  0  0  0
    3.4450   18.7950    9.2510 C   0  0  1  0  0  0  0  0  0  0  0  0
    6.4860   21.3940   19.2770 C   0  0  0  0  0  0  0  0  0  0  0  0
    5.3440   20.6270   19.0350 C   0  0  0  0  0  0  0  0  0  0  0  0
    4.5530   19.5060    8.7380 O   0  0  0  0  0  0  0  0  0  0  0  0
    3.4120   17.3660    8.6780 C   0  0  0  0  0  0  0  0  0  0  0  0
    4.6370   16.5310    9.0010 C   0  0  0  0  0  0  0  0  0  0  0  0
    4.5980   15.4620    9.8070 C   0  0  0  0  0  0  0  0  0  0  0  0
    5.8150   14.6190   10.1090 C   0  0  0  0  0  0  0  0  0  0  0  0
    4.6010   18.3930   17.6790 H   0  0  0  0  0  0  0  0  0  0  0  0
    3.9600   18.4010   16.1360 H   0  0  0  0  0  0  0  0  0  0  0  0
    0.7230   16.5740   21.4460 H   0  0  0  0  0  0  0  0  0  0  0  0
    1.3000   14.9860   20.9900 H   0  0  0  0  0  0  0  0  0  0  0  0
    2.4300   16.2210   21.4180 H   0  0  0  0  0  0  0  0  0  0  0  0
   -1.0580   15.5570   19.8870 H   0  0  0  0  0  0  0  0  0  0  0  0
   -1.4070   15.2980   18.2040 H   0  0  0  0  0  0  0  0  0  0  0  0
   -0.3340   14.2110   19.0390 H   0  0  0  0  0  0  0  0  0  0  0  0
    2.5870   20.2680   18.0430 H   0  0  0  0  0  0  0  0  0  0  0  0
    0.2770   19.0710   15.3820 H   0  0  0  0  0  0  0  0  0  0  0  0
    3.1600   20.1750   15.1780 H   0  0  0  0  0  0  0  0  0  0  0  0
    2.2180   21.3930   16.0740 H   0  0  0  0  0  0  0  0  0  0  0  0
    0.5470   19.6290   13.0110 H   0  0  0  0  0  0  0  0  0  0  0  0
    2.9850   15.5020   15.9550 H   0  0  0  0  0  0  0  0  0  0  0  0
    3.7310   19.8360   11.1130 H   0  0  0  0  0  0  0  0  0  0  0  0
    4.2250   18.1360   11.1490 H   0  0  0  0  0  0  0  0  0  0  0  0
    3.4670   16.5500   12.6030 H   0  0  0  0  0  0  0  0  0  0  0  0
    6.4920   23.2710   16.4580 H   0  0  0  0  0  0  0  0  0  0  0  0
    7.7710   22.9290   18.5400 H   0  0  0  0  0  0  0  0  0  0  0  0
    2.5410   19.3090    8.9190 H   0  0  0  0  0  0  0  0  0  0  0  0
    7.0410   21.2480   20.1680 H   0  0  0  0  0  0  0  0  0  0  0  0
    5.0300   19.9000   19.7390 H   0  0  0  0  0  0  0  0  0  0  0  0
    5.3490   18.9870    8.8880 H   0  0  0  0  0  0  0  0  0  0  0  0
    2.5180   16.8680    9.0310 H   0  0  0  0  0  0  0  0  0  0  0  0
    3.2980   17.4220    7.6030 H   0  0  0  0  0  0  0  0  0  0  0  0
    5.5400   16.8390    8.5380 H   0  0  0  0  0  0  0  0  0  0  0  0
    3.6930   15.1420   10.2570 H   0  0  0  0  0  0  0  0  0  0  0  0
    5.7950   14.2650   11.1290 H   0  0  0  0  0  0  0  0  0  0  0  0
    5.8520   13.7480    9.4680 H   0  0  0  0  0  0  0  0  0  0  0  0
    6.7340   15.1700    9.9680 H   0  0  0  0  0  0  0  0  0  0  0  0
  1  2  2  0  0  0  0
  2  3  1  0  0  0  0
  2  4  1  0  0  0  0
  3  5  2  0  0  0  0
  3 10  1  0  0  0  0
  4  6  1  0  0  0  0
  4  9  1  0  0  0  0
  5  7  1  0  0  0  0
  5 11  1  0  0  0  0
  6  7  2  0  0  0  0
  6  8  1  0  0  0  0
  8 14  1  0  0  0  0
  8 19  2  0  0  0  0
  9 12  1  0  0  0  0
  9 35  1  0  0  0  0
  9 36  1  0  0  0  0
 10 37  1  0  0  0  0
 10 38  1  0  0  0  0
 10 39  1  0  0  0  0
 11 40  1  0  0  0  0
 11 41  1  0  0  0  0
 11 42  1  0  0  0  0
 12 13  1  0  0  0  0
 12 15  1  0  0  0  0
 12 43  1  0  0  0  0
 13 24  2  0  0  0  0
 13 29  1  0  0  0  0
 14 16  2  0  0  0  0
 14 44  1  0  0  0  0
 15 21  1  0  0  0  0
 15 45  1  0  0  0  0
 15 46  1  0  0  0  0
 16 17  1  0  0  0  0
 16 47  1  0  0  0  0
 17 18  1  0  0  0  0
 17 23  2  0  0  0  0
 18 22  1  0  0  0  0
 19 20  1  0  0  0  0
 19 23  1  0  0  0  0
 20 48  1  0  0  0  0
 21 24  1  0  0  0  0
 22 27  1  0  0  0  0
 22 49  1  0  0  0  0
 22 50  1  0  0  0  0
 23 51  1  0  0  0  0
 24 25  1  0  0  0  0
 25 26  2  0  0  0  0
 25 52  1  0  0  0  0
 26 28  1  0  0  0  0
 26 53  1  0  0  0  0
 27 30  1  0  0  0  0
 27 31  1  0  0  0  0
 27 54  1  0  0  0  0
 28 29  2  0  0  0  0
 28 55  1  0  0  0  0
 29 56  1  0  0  0  0
 30 57  1  0  0  0  0
 31 32  1  0  0  0  0
 31 58  1  0  0  0  0
 31 59  1  0  0  0  0
 32 33  2  0  0  0  0
 32 60  1  0  0  0  0
 33 34  1  0  0  0  0
 33 61  1  0  0  0  0
 34 62  1  0  0  0  0
 34 63  1  0  0  0  0
 34 64  1  0  0  0  0
M  END
> <rseq>
1

> <mseq>
392

> <S>
-6.7

> <rmsd_refine>
0.7723017

> <E_conf>
-20.56328

> <E_score1>
-13.17115

> <E_refine>
-37.29215

> <E_score2>
-6.7

>  <$File>
outputs/pdb_4j58_cleaned.pdb_2024_06_17__22_47_40_V2_BS398_MIN1_/SDF/sdf_db.sdf

> <Rec_index>
1

>  <PLIF_raw>
[[30,2,4,6,7,5,3],[2222,954,954,954,954,954,954],[148,62,62,62,62,62,62],[3,10,10,10,10,10,10],[1.9,0.5,0.5,0.5,0.5,0.5,0.5]]

> <FP:PLIF>
21 39 40

>  <PLIF_ligidx>
[[2,4,6,7,5,3],30,30]

$$$$
392
  MOE2022           3D

 60 61  0  0  1  0  0  0  0  0999 V2000
    5.1430   14.7760   10.0140 C   0  0  0  0  0  0  0  0  0  0  0  0
    4.3810   14.7240   11.1740 C   0  0  0  0  0  0  0  0  0  0  0  0
    3.6620   15.8540   11.5970 C   0  0  0  0  0  0  0  0  0  0  0  0
    5.8870   13.6820    9.6480 O   0  0  0  0  0  0  0  0  0  0  0  0
    3.6700   17.0050   10.7830 C   0  0  0  0  0  0  0  0  0  0  0  0
    2.9690   15.8420   12.8880 C   0  0  0  0  0  0  0  0  0  0  0  0
    2.7740   17.0610   13.4960 N   0  0  0  0  0  0  0  0  0  0  0  0
    2.5850   14.8200   13.4500 O   0  0  0  0  0  0  0  0  0  0  0  0
    5.1650   15.9360    9.2350 C   0  0  0  0  0  0  0  0  0  0  0  0
    2.2430   17.3440   14.8070 C   0  0  0  0  0  0  0  0  0  0  0  0
    2.6920   16.6290   15.9750 C   0  0  0  0  0  0  0  0  0  0  0  0
    1.3920   18.4020   14.9210 C   0  0  0  0  0  0  0  0  0  0  0  0
    3.6140   15.8070   15.9770 O   0  0  0  0  0  0  0  0  0  0  0  0
    0.9160   19.0960   13.8480 O   0  0  0  0  0  0  0  0  0  0  0  0
    0.9870   18.8620   16.1770 N   0  0  0  0  0  0  0  0  0  0  0  0
    5.9160   15.9920    8.1010 O   0  0  0  0  0  0  0  0  0  0  0  0
    2.0910   16.9650   17.2100 N   0  0  0  0  0  0  0  0  0  0  0  0
    0.4850   20.2470   16.3460 C   0  0  0  0  0  0  0  0  0  0  0  0
    4.4190   17.0470    9.6120 C   0  0  0  0  0  0  0  0  0  0  0  0
    1.2780   18.1070   17.3240 C   0  0  0  0  0  0  0  0  0  0  0  0
    1.5590   21.3290   16.1060 C   0  0  0  0  0  0  0  0  0  0  0  0
    0.8640   18.4630   18.4190 O   0  0  0  0  0  0  0  0  0  0  0  0
    2.5140   16.2600   18.4620 C   0  0  0  0  0  0  0  0  0  0  0  0
    2.8870   21.0950   16.8500 C   0  0  0  0  0  0  0  0  0  0  0  0
    3.9270   22.1590   16.4630 C   0  0  0  0  0  0  0  0  0  0  0  0
    5.3520   21.8180   16.9420 C   0  0  0  0  0  0  0  0  0  0  0  0
    5.5340   21.7220   18.4700 C   0  0  2  0  0  0  0  0  0  0  0  0
    5.0890   22.9370   19.0470 O   0  0  0  0  0  0  0  0  0  0  0  0
    1.4750   15.9100   19.5250 C   0  0  0  0  0  0  0  0  0  0  0  0
    0.5780   15.0810   19.2510 O   0  5  0  0  0  0  0  0  0  0  0  0
    7.0070   21.4760   18.8750 C   0  0  2  0  0  0  0  0  0  0  0  0
    1.5960   16.4470   20.6490 O   0  0  0  0  0  0  0  0  0  0  0  0
    7.6020   20.1790   18.3150 C   0  0  0  0  0  0  0  0  0  0  0  0
    7.1010   21.3750   20.2790 O   0  0  0  0  0  0  0  0  0  0  0  0
    4.3650   13.8390   11.7540 H   0  0  0  0  0  0  0  0  0  0  0  0
    5.7820   12.9660   10.3060 H   0  0  0  0  0  0  0  0  0  0  0  0
    3.1060   17.8580   11.0570 H   0  0  0  0  0  0  0  0  0  0  0  0
    2.9720   17.8830   12.9060 H   0  0  0  0  0  0  0  0  0  0  0  0
    0.2980   19.7930   14.1420 H   0  0  0  0  0  0  0  0  0  0  0  0
    6.3730   15.1380    7.9710 H   0  0  0  0  0  0  0  0  0  0  0  0
   -0.3530   20.4180   15.6840 H   0  0  0  0  0  0  0  0  0  0  0  0
    0.0620   20.3900   17.3290 H   0  0  0  0  0  0  0  0  0  0  0  0
    4.4250   17.9200    9.0100 H   0  0  0  0  0  0  0  0  0  0  0  0
    1.7640   21.3730   15.0360 H   0  0  0  0  0  0  0  0  0  0  0  0
    1.1450   22.2930   16.4060 H   0  0  0  0  0  0  0  0  0  0  0  0
    2.9710   15.3320   18.1760 H   0  0  0  0  0  0  0  0  0  0  0  0
    3.2950   16.8410   18.9310 H   0  0  0  0  0  0  0  0  0  0  0  0
    2.7080   21.1210   17.9260 H   0  0  0  0  0  0  0  0  0  0  0  0
    3.2850   20.1150   16.5850 H   0  0  0  0  0  0  0  0  0  0  0  0
    3.9590   22.2370   15.3750 H   0  0  0  0  0  0  0  0  0  0  0  0
    3.6200   23.1290   16.8560 H   0  0  0  0  0  0  0  0  0  0  0  0
    5.6310   20.8650   16.4910 H   0  0  0  0  0  0  0  0  0  0  0  0
    6.0330   22.5800   16.5580 H   0  0  0  0  0  0  0  0  0  0  0  0
    4.9230   20.9020   18.8530 H   0  0  0  0  0  0  0  0  0  0  0  0
    4.1590   23.0420   18.8290 H   0  0  0  0  0  0  0  0  0  0  0  0
    7.6200   22.3150   18.5400 H   0  0  0  0  0  0  0  0  0  0  0  0
    6.9570   19.3420   18.5800 H   0  0  0  0  0  0  0  0  0  0  0  0
    7.7020   20.2410   17.2330 H   0  0  0  0  0  0  0  0  0  0  0  0
    8.5940   20.0160   18.7400 H   0  0  0  0  0  0  0  0  0  0  0  0
    7.0210   22.2600   20.6420 H   0  0  0  0  0  0  0  0  0  0  0  0
  1  2  1  0  0  0  0
  1  4  1  0  0  0  0
  1  9  2  0  0  0  0
  2  3  2  0  0  0  0
  2 35  1  0  0  0  0
  3  5  1  0  0  0  0
  3  6  1  0  0  0  0
  4 36  1  0  0  0  0
  5 19  2  0  0  0  0
  5 37  1  0  0  0  0
  6  7  1  0  0  0  0
  6  8  2  0  0  0  0
  7 10  1  0  0  0  0
  7 38  1  0  0  0  0
  9 16  1  0  0  0  0
  9 19  1  0  0  0  0
 10 11  1  0  0  0  0
 10 12  2  0  0  0  0
 11 13  2  0  0  0  0
 11 17  1  0  0  0  0
 12 14  1  0  0  0  0
 12 15  1  0  0  0  0
 14 39  1  0  0  0  0
 15 18  1  0  0  0  0
 15 20  1  0  0  0  0
 16 40  1  0  0  0  0
 17 20  1  0  0  0  0
 17 23  1  0  0  0  0
 18 21  1  0  0  0  0
 18 41  1  0  0  0  0
 18 42  1  0  0  0  0
 19 43  1  0  0  0  0
 20 22  2  0  0  0  0
 21 24  1  0  0  0  0
 21 44  1  0  0  0  0
 21 45  1  0  0  0  0
 23 29  1  0  0  0  0
 23 46  1  0  0  0  0
 23 47  1  0  0  0  0
 24 25  1  0  0  0  0
 24 48  1  0  0  0  0
 24 49  1  0  0  0  0
 25 26  1  0  0  0  0
 25 50  1  0  0  0  0
 25 51  1  0  0  0  0
 26 27  1  0  0  0  0
 26 52  1  0  0  0  0
 26 53  1  0  0  0  0
 27 28  1  0  0  0  0
 27 31  1  0  0  0  0
 27 54  1  0  0  0  0
 28 55  1  0  0  0  0
 29 30  1  0  0  0  0
 29 32  2  0  0  0  0
 31 33  1  0  0  0  0
 31 34  1  0  0  0  0
 31 56  1  0  0  0  0
 33 57  1  0  0  0  0
 33 58  1  0  0  0  0
 33 59  1  0  0  0  0
 34 60  1  0  0  0  0
M  CHG  1  30  -1
M  END
> <rseq>
1

> <mseq>
393

> <S>
-6.833173

> <rmsd_refine>
1.35979

> <E_conf>
-133.4981

> <E_score1>
-11.20373

> <E_refine>
-41.92862

> <E_score2>
-6.833173

>  <$File>
outputs/pdb_4j58_cleaned.pdb_2024_06_17__22_47_40_V2_BS398_MIN1_/SDF/sdf_db.sdf

> <Rec_index>
1

>  <PLIF_raw>
[[13,30,30,10,12,15,20,17,11],[954,1212,1212,954,954,954,954,954,954],[62,81,81,62,62,62,62,62,62],[2,2,7,10,10,10,10,10,10],[0.6,0.7,1.362426535,1.5,1.5,1.5,1.5,1.5,1.5]]

> <FP:PLIF>
20 21 30 17 24

>  <PLIF_ligidx>
[13,[10,12,15,20,17,11],[10,12,15,20,17,11],30,30]

$$$$
393
  MOE2022           3D

 70 74  0  0  1  0  0  0  0  0999 V2000
    2.6190   16.4460   20.5560 C   0  0  0  0  0  0  0  0  0  0  0  0
    1.3340   15.9240   20.6300 C   0  0  0  0  0  0  0  0  0  0  0  0
    2.9740   17.2790   19.5010 C   0  0  0  0  0  0  0  0  0  0  0  0
    0.4040   16.2330   19.6440 C   0  0  0  0  0  0  0  0  0  0  0  0
    0.7590   17.0680   18.5880 C   0  0  0  0  0  0  0  0  0  0  0  0
    2.0470   17.6000   18.5070 C   0  0  0  0  0  0  0  0  0  0  0  0
    2.4230   18.4890   17.3270 C   0  0  1  0  0  0  0  0  0  0  0  0
    3.3670   19.5500   17.7130 N   0  0  0  0  0  0  0  0  0  0  0  0
    2.9620   17.6500   16.1760 C   0  0  0  0  0  0  0  0  0  0  0  0
    3.1160   20.8660   17.6880 C   0  0  0  0  0  0  0  0  0  0  0  0
    2.0740   16.8980   15.5110 N   0  0  0  0  0  0  0  0  0  0  0  0
    2.0420   21.3090   17.2840 O   0  0  0  0  0  0  0  0  0  0  0  0
    4.2460   21.8410   18.1240 C   0  0  2  0  0  0  0  0  0  0  0  0
    4.1650   17.5970   15.9290 O   0  0  0  0  0  0  0  0  0  0  0  0
    2.4510   15.9160   14.5040 C   0  0  1  0  0  0  0  0  0  0  0  0
    5.3370   21.1780   19.0240 C   0  0  0  0  0  0  0  0  0  0  0  0
    3.6110   22.9890   18.9460 C   0  0  0  0  0  0  0  0  0  0  0  0
    4.9310   22.4630   16.8730 C   0  0  1  0  0  0  0  0  0  0  0  0
    5.9600   23.3780   17.2510 O   0  0  0  0  0  0  0  0  0  0  0  0
    5.6960   21.4180   16.0580 C   0  0  0  0  0  0  0  0  0  0  0  0
    6.4370   20.4240   18.2380 C   0  0  1  0  0  0  0  0  0  0  0  0
    6.8880   21.2180   16.9880 C   0  0  2  0  0  0  0  0  0  0  0  0
    7.6260   20.1000   19.1540 C   0  0  0  0  0  0  0  0  0  0  0  0
    1.2680   15.1230   13.9530 C   0  0  0  0  0  0  0  0  0  0  0  0
    3.0450   16.5400   13.3560 O   0  0  0  0  0  0  0  0  0  0  0  0
    1.5920   14.8770   12.4830 C   0  0  0  0  0  0  0  0  0  0  0  0
    2.3670   16.1580   12.1320 C   0  0  0  0  0  0  0  0  0  0  0  0
    7.2080   22.6920   17.2700 C   0  0  0  0  0  0  0  0  0  0  0  0
    1.4970   17.3340   11.6800 C   0  0  0  0  0  0  0  0  0  0  0  0
    3.3750   16.0170   10.9900 C   0  0  0  0  0  0  0  0  0  0  0  0
    2.4830   18.3080   11.0270 C   0  0  2  0  0  0  0  0  0  0  0  0
    3.6810   17.4580   10.5690 C   0  0  2  0  0  0  0  0  0  0  0  0
    3.8960   17.5620    9.1760 O   0  0  0  0  0  0  0  0  0  0  0  0
    2.9040   19.2880   11.9580 O   0  0  0  0  0  0  0  0  0  0  0  0
    3.3290   16.2060   21.3040 H   0  0  0  0  0  0  0  0  0  0  0  0
    1.0680   15.2930   21.4360 H   0  0  0  0  0  0  0  0  0  0  0  0
    3.9540   17.6740   19.4620 H   0  0  0  0  0  0  0  0  0  0  0  0
   -0.5760   15.8360   19.6960 H   0  0  0  0  0  0  0  0  0  0  0  0
    0.0420   17.2970   17.8430 H   0  0  0  0  0  0  0  0  0  0  0  0
    1.5060   18.9470   16.9800 H   0  0  0  0  0  0  0  0  0  0  0  0
    4.2760   19.2480   18.0250 H   0  0  0  0  0  0  0  0  0  0  0  0
    1.1070   16.9270   15.7920 H   0  0  0  0  0  0  0  0  0  0  0  0
    3.1890   15.2360   14.9080 H   0  0  0  0  0  0  0  0  0  0  0  0
    5.8360   21.9630   19.5940 H   0  0  0  0  0  0  0  0  0  0  0  0
    4.8740   20.5070   19.7470 H   0  0  0  0  0  0  0  0  0  0  0  0
    2.8900   23.5340   18.3360 H   0  0  0  0  0  0  0  0  0  0  0  0
    3.0930   22.5840   19.8160 H   0  0  0  0  0  0  0  0  0  0  0  0
    4.3700   23.6960   19.2830 H   0  0  0  0  0  0  0  0  0  0  0  0
    4.1860   22.9620   16.2510 H   0  0  0  0  0  0  0  0  0  0  0  0
    5.1300   20.5020   15.8930 H   0  0  0  0  0  0  0  0  0  0  0  0
    6.0120   21.8430   15.1040 H   0  0  0  0  0  0  0  0  0  0  0  0
    6.0300   19.4740   17.8970 H   0  0  0  0  0  0  0  0  0  0  0  0
    7.7120   20.7160   16.4790 H   0  0  0  0  0  0  0  0  0  0  0  0
    8.3810   19.5440   18.5960 H   0  0  0  0  0  0  0  0  0  0  0  0
    8.0750   21.0140   19.5420 H   0  0  0  0  0  0  0  0  0  0  0  0
    7.2880   19.4900   19.9900 H   0  0  0  0  0  0  0  0  0  0  0  0
    1.1250   14.1900   14.4960 H   0  0  0  0  0  0  0  0  0  0  0  0
    0.3610   15.7260   14.0200 H   0  0  0  0  0  0  0  0  0  0  0  0
    2.2480   14.0090   12.3960 H   0  0  0  0  0  0  0  0  0  0  0  0
    0.6940   14.7480   11.8770 H   0  0  0  0  0  0  0  0  0  0  0  0
    7.8380   23.0860   16.4720 H   0  0  0  0  0  0  0  0  0  0  0  0
    7.7120   22.8220   18.2280 H   0  0  0  0  0  0  0  0  0  0  0  0
    0.7840   16.9960   10.9270 H   0  0  0  0  0  0  0  0  0  0  0  0
    0.9640   17.7920   12.5150 H   0  0  0  0  0  0  0  0  0  0  0  0
    4.2750   15.4970   11.3170 H   0  0  0  0  0  0  0  0  0  0  0  0
    2.9100   15.4780   10.1620 H   0  0  0  0  0  0  0  0  0  0  0  0
    2.0100   18.8010   10.1760 H   0  0  0  0  0  0  0  0  0  0  0  0
    4.5730   17.8020   11.0870 H   0  0  0  0  0  0  0  0  0  0  0  0
    4.6910   17.0740    8.9480 H   0  0  0  0  0  0  0  0  0  0  0  0
    3.1760   18.8370   12.7620 H   0  0  0  0  0  0  0  0  0  0  0  0
  1  2  2  0  0  0  0
  1  3  1  0  0  0  0
  1 35  1  0  0  0  0
  2  4  1  0  0  0  0
  2 36  1  0  0  0  0
  3  6  2  0  0  0  0
  3 37  1  0  0  0  0
  4  5  2  0  0  0  0
  4 38  1  0  0  0  0
  5  6  1  0  0  0  0
  5 39  1  0  0  0  0
  6  7  1  0  0  0  0
  7  8  1  0  0  0  0
  7  9  1  0  0  0  0
  7 40  1  0  0  0  0
  8 10  1  0  0  0  0
  8 41  1  0  0  0  0
  9 11  1  0  0  0  0
  9 14  2  0  0  0  0
 10 12  2  0  0  0  0
 10 13  1  0  0  0  0
 11 15  1  0  0  0  0
 11 42  1  0  0  0  0
 13 16  1  0  0  0  0
 13 17  1  0  0  0  0
 13 18  1  0  0  0  0
 15 24  1  0  0  0  0
 15 25  1  0  0  0  0
 15 43  1  0  0  0  0
 16 21  1  0  0  0  0
 16 44  1  0  0  0  0
 16 45  1  0  0  0  0
 17 46  1  0  0  0  0
 17 47  1  0  0  0  0
 17 48  1  0  0  0  0
 18 19  1  0  0  0  0
 18 20  1  0  0  0  0
 18 49  1  0  0  0  0
 19 28  1  0  0  0  0
 20 22  1  0  0  0  0
 20 50  1  0  0  0  0
 20 51  1  0  0  0  0
 21 22  1  0  0  0  0
 21 23  1  0  0  0  0
 21 52  1  0  0  0  0
 22 28  1  0  0  0  0
 22 53  1  0  0  0  0
 23 54  1  0  0  0  0
 23 55  1  0  0  0  0
 23 56  1  0  0  0  0
 24 26  1  0  0  0  0
 24 57  1  0  0  0  0
 24 58  1  0  0  0  0
 25 27  1  0  0  0  0
 26 27  1  0  0  0  0
 26 59  1  0  0  0  0
 26 60  1  0  0  0  0
 27 29  1  0  0  0  0
 27 30  1  0  0  0  0
 28 61  1  0  0  0  0
 28 62  1  0  0  0  0
 29 31  1  0  0  0  0
 29 63  1  0  0  0  0
 29 64  1  0  0  0  0
 30 32  1  0  0  0  0
 30 65  1  0  0  0  0
 30 66  1  0  0  0  0
 31 32  1  0  0  0  0
 31 34  1  0  0  0  0
 31 67  1  0  0  0  0
 32 33  1  0  0  0  0
 32 68  1  0  0  0  0
 33 69  1  0  0  0  0
 34 70  1  0  0  0  0
M  END
> <rseq>
1

> <mseq>
394

> <S>
-7.409846

> <rmsd_refine>
1.165206

> <E_conf>
-24.87877

> <E_score1>
-9.718299

> <E_refine>
-37.92886

> <E_score2>
-7.409846

>  <$File>
outputs/pdb_4j58_cleaned.pdb_2024_06_17__22_47_40_V2_BS398_MIN1_/SDF/sdf_db.sdf

> <Rec_index>
1

>  <PLIF_raw>
[[14,14],[820,954],[54,62],[2,2],[0.5,1.2]]

> <FP:PLIF>
6 20

>  <PLIF_ligidx>
[14,14]

$$$$
394
  MOE2022           3D

 62 65  0  0  1  0  0  0  0  0999 V2000
    7.3390   21.3780   19.0190 C   0  0  0  0  0  0  0  0  0  0  0  0
    6.7740   20.3470   18.2800 C   0  0  0  0  0  0  0  0  0  0  0  0
    5.5190   20.5220   17.6980 C   0  0  0  0  0  0  0  0  0  0  0  0
    5.0060   19.4680   16.9720 O   0  0  0  0  0  0  0  0  0  0  0  0
    3.7450   19.3630   16.2440 C   0  0  1  0  0  0  0  0  0  0  0  0
    4.8230   21.7240   17.8510 C   0  0  0  0  0  0  0  0  0  0  0  0
    6.6540   22.5790   19.1730 C   0  0  0  0  0  0  0  0  0  0  0  0
    5.3990   22.7520   18.5910 C   0  0  0  0  0  0  0  0  0  0  0  0
    3.8650   19.9560   14.8410 C   0  0  0  0  0  0  0  0  0  0  0  0
    4.3980   21.0570   14.7060 O   0  0  0  0  0  0  0  0  0  0  0  0
    3.3000   17.8930   16.2890 C   0  0  2  0  0  0  0  0  0  0  0  0
    3.3660   19.2940   13.7680 N   0  0  0  0  0  0  0  0  0  0  0  0
    2.2330   17.5460   15.2320 C   0  0  2  0  0  0  0  0  0  0  0  0
    2.8440   17.9080   13.8460 C   0  0  1  0  0  0  0  0  0  0  0  0
    2.8630   17.5870   17.6060 O   0  0  0  0  0  0  0  0  0  0  0  0
    3.4420   19.8920   12.4210 C   0  0  0  0  0  0  0  0  0  0  0  0
    0.9860   18.3200   15.4530 N   0  0  0  0  0  0  0  0  0  0  0  0
    1.9530   16.0280   15.3480 C   0  0  0  0  0  0  0  0  0  0  0  0
    0.9390   15.5610   14.4820 O   0  0  0  0  0  0  0  0  0  0  0  0
    1.8720   17.6610   12.7500 O   0  0  0  0  0  0  0  0  0  0  0  0
    2.0480   16.5850   11.7130 C   0  0  2  0  0  0  0  0  0  0  0  0
    3.3560   15.7730   11.8060 C   0  0  0  0  0  0  0  0  0  0  0  0
    1.8610   17.1830   10.3280 C   0  0  0  0  0  0  0  0  0  0  0  0
    2.0100   18.3790   10.0840 O   0  0  0  0  0  0  0  0  0  0  0  0
    3.3740   14.4080   11.0940 C   0  0  2  0  0  0  0  0  0  0  0  0
    1.6440   16.3820    9.2800 O   0  0  0  0  0  0  0  0  0  0  0  0
    1.6130   14.9400    9.2830 C   0  0  1  0  0  0  0  0  0  0  0  0
    4.6860   13.9150   11.2910 O   0  0  0  0  0  0  0  0  0  0  0  0
    1.0410   14.4820    7.9340 C   0  0  0  0  0  0  0  0  0  0  0  0
    1.1180   12.9890    7.7530 C   0  0  0  0  0  0  0  0  0  0  0  0
    3.0220   14.3520    9.5830 C   0  0  2  0  0  0  0  0  0  0  0  0
    0.2400   12.3980    7.1730 O   0  0  0  0  0  0  0  0  0  0  0  0
    2.2810   12.3050    8.2660 C   0  0  0  0  0  0  0  0  0  0  0  0
    3.1710   12.9130    9.0760 C   0  0  0  0  0  0  0  0  0  0  0  0
    8.2940   21.2520   19.4610 H   0  0  0  0  0  0  0  0  0  0  0  0
    7.2980   19.4370   18.1600 H   0  0  0  0  0  0  0  0  0  0  0  0
    3.0030   19.9390   16.7800 H   0  0  0  0  0  0  0  0  0  0  0  0
    3.8710   21.8630   17.4100 H   0  0  0  0  0  0  0  0  0  0  0  0
    7.0920   23.3610   19.7340 H   0  0  0  0  0  0  0  0  0  0  0  0
    4.8830   23.6700   18.7100 H   0  0  0  0  0  0  0  0  0  0  0  0
    4.1840   17.2900   16.0770 H   0  0  0  0  0  0  0  0  0  0  0  0
    3.7010   17.2750   13.7010 H   0  0  0  0  0  0  0  0  0  0  0  0
    3.4740   17.9780   18.2370 H   0  0  0  0  0  0  0  0  0  0  0  0
    4.0330   20.7970   12.3810 H   0  0  0  0  0  0  0  0  0  0  0  0
    3.8850   19.2050   11.7140 H   0  0  0  0  0  0  0  0  0  0  0  0
    2.4570   20.1470   12.0560 H   0  0  0  0  0  0  0  0  0  0  0  0
    1.1630   19.3070   15.3370 H   0  0  0  0  0  0  0  0  0  0  0  0
    0.6380   18.1390   16.3860 H   0  0  0  0  0  0  0  0  0  0  0  0
    2.8690   15.4690   15.1560 H   0  0  0  0  0  0  0  0  0  0  0  0
    1.6290   15.8090   16.3650 H   0  0  0  0  0  0  0  0  0  0  0  0
    0.1690   16.1260   14.5960 H   0  0  0  0  0  0  0  0  0  0  0  0
    1.2360   15.8910   11.8820 H   0  0  0  0  0  0  0  0  0  0  0  0
    4.1730   16.3920   11.4350 H   0  0  0  0  0  0  0  0  0  0  0  0
    3.5290   15.5280   12.8510 H   0  0  0  0  0  0  0  0  0  0  0  0
    2.6760   13.7460   11.6110 H   0  0  0  0  0  0  0  0  0  0  0  0
    0.9170   14.6110   10.0570 H   0  0  0  0  0  0  0  0  0  0  0  0
    4.6860   13.3340   12.0600 H   0  0  0  0  0  0  0  0  0  0  0  0
    0.0210   14.8280    7.8250 H   0  0  0  0  0  0  0  0  0  0  0  0
    1.6010   14.9550    7.1390 H   0  0  0  0  0  0  0  0  0  0  0  0
    3.7480   14.9510    9.0490 H   0  0  0  0  0  0  0  0  0  0  0  0
    2.4100   11.2940    7.9760 H   0  0  0  0  0  0  0  0  0  0  0  0
    4.0310   12.3880    9.4040 H   0  0  0  0  0  0  0  0  0  0  0  0
  1  2  1  0  0  0  0
  1  7  2  0  0  0  0
  1 35  1  0  0  0  0
  2  3  2  0  0  0  0
  2 36  1  0  0  0  0
  3  4  1  0  0  0  0
  3  6  1  0  0  0  0
  4  5  1  0  0  0  0
  5  9  1  0  0  0  0
  5 11  1  0  0  0  0
  5 37  1  0  0  0  0
  6  8  2  0  0  0  0
  6 38  1  0  0  0  0
  7  8  1  0  0  0  0
  7 39  1  0  0  0  0
  8 40  1  0  0  0  0
  9 10  2  0  0  0  0
  9 12  1  0  0  0  0
 11 13  1  0  0  0  0
 11 15  1  0  0  0  0
 11 41  1  0  0  0  0
 12 14  1  0  0  0  0
 12 16  1  0  0  0  0
 13 14  1  0  0  0  0
 13 17  1  0  0  0  0
 13 18  1  0  0  0  0
 14 20  1  0  0  0  0
 14 42  1  0  0  0  0
 15 43  1  0  0  0  0
 16 44  1  0  0  0  0
 16 45  1  0  0  0  0
 16 46  1  0  0  0  0
 17 47  1  0  0  0  0
 17 48  1  0  0  0  0
 18 19  1  0  0  0  0
 18 49  1  0  0  0  0
 18 50  1  0  0  0  0
 19 51  1  0  0  0  0
 20 21  1  0  0  0  0
 21 22  1  0  0  0  0
 21 23  1  0  0  0  0
 21 52  1  0  0  0  0
 22 25  1  0  0  0  0
 22 53  1  0  0  0  0
 22 54  1  0  0  0  0
 23 24  2  0  0  0  0
 23 26  1  0  0  0  0
 25 28  1  0  0  0  0
 25 31  1  0  0  0  0
 25 55  1  0  0  0  0
 26 27  1  0  0  0  0
 27 29  1  0  0  0  0
 27 31  1  0  0  0  0
 27 56  1  0  0  0  0
 28 57  1  0  0  0  0
 29 30  1  0  0  0  0
 29 58  1  0  0  0  0
 29 59  1  0  0  0  0
 30 32  2  0  0  0  0
 30 33  1  0  0  0  0
 31 34  1  0  0  0  0
 31 60  1  0  0  0  0
 33 34  2  0  0  0  0
 33 61  1  0  0  0  0
 34 62  1  0  0  0  0
M  END
> <rseq>
1

> <mseq>
395

> <S>
-5.369929

> <rmsd_refine>
3.072266

> <E_conf>
123.2002

> <E_score1>
-11.07833

> <E_refine>
-26.57902

> <E_score2>
-5.369929

>  <$File>
outputs/pdb_4j58_cleaned.pdb_2024_06_17__22_47_40_V2_BS398_MIN1_/SDF/sdf_db.sdf

> <Rec_index>
1

>  <PLIF_raw>
[28,1056,70,3,2.6]

> <FP:PLIF>
3 4

>  <PLIF_ligidx>
[28,28]

$$$$
395
  MOE2022           3D

 63 66  0  0  1  0  0  0  0  0999 V2000
    6.5890   19.9420   18.8800 C   0  0  0  0  0  0  0  0  0  0  0  0
    7.5910   20.7520   18.4040 C   0  0  0  0  0  0  0  0  0  0  0  0
    5.3620   19.8390   18.1880 C   0  0  0  0  0  0  0  0  0  0  0  0
    4.3360   18.9750   18.6290 C   0  0  0  0  0  0  0  0  0  0  0  0
    3.1500   18.8820   17.9360 C   0  0  0  0  0  0  0  0  0  0  0  0
    7.4100   21.4940   17.2230 C   0  0  0  0  0  0  0  0  0  0  0  0
    8.5410   22.3810   16.7510 C   0  0  0  0  0  0  0  0  0  0  0  0
    6.2140   21.4140   16.5130 C   0  0  0  0  0  0  0  0  0  0  0  0
    2.9740   19.7920   16.8410 C   0  0  0  0  0  0  0  0  0  0  0  0
    6.0360   22.1520   15.2660 C   0  0  0  0  0  0  0  0  0  0  0  0
    2.1480   17.8770   18.3330 C   0  0  0  0  0  0  0  0  0  0  0  0
    6.6760   21.7850   14.2390 O   0  0  0  0  0  0  0  0  0  0  0  0
    5.2730   23.1530   15.2340 O   0  5  0  0  0  0  0  0  0  0  0  0
    2.2910   17.2590   19.4250 O   0  5  0  0  0  0  0  0  0  0  0  0
    1.1750   17.5860   17.5820 O   0  0  0  0  0  0  0  0  0  0  0  0
    1.7260   19.9210   16.2650 N   0  0  0  0  0  0  0  0  0  0  0  0
    5.1550   20.5980   17.0120 C   0  0  0  0  0  0  0  0  0  0  0  0
    1.4210   20.5880   15.0010 C   0  0  0  0  0  0  0  0  0  0  0  0
    3.9420   20.5580   16.3790 N   0  0  0  0  0  0  0  0  0  0  0  0
    1.1770   19.5950   13.8580 C   0  0  1  0  0  0  0  0  0  0  0  0
    2.4620   18.8460   13.4610 C   0  0  0  0  0  0  0  0  0  0  0  0
    0.1680   18.4830   14.2150 C   0  0  0  0  0  0  0  0  0  0  0  0
    0.9930   17.1970   14.2600 C   0  0  0  0  0  0  0  0  0  0  0  0
    2.1480   17.3870   13.3450 N   0  3  1  0  0  0  0  0  0  0  0  0
    1.7980   16.9540   11.9510 C   0  0  0  0  0  0  0  0  0  0  0  0
    2.8840   17.0630   10.8970 C   0  0  0  0  0  0  0  0  0  0  0  0
    3.8050   16.0930   10.6460 C   0  0  0  0  0  0  0  0  0  0  0  0
    3.9000   14.8390   11.4240 C   0  0  0  0  0  0  0  0  0  0  0  0
    3.2300   14.5970   12.4210 O   0  0  0  0  0  0  0  0  0  0  0  0
    2.8130   18.3560   10.0980 C   0  0  0  0  0  0  0  0  0  0  0  0
    4.7750   16.2500    9.4770 C   0  0  0  0  0  0  0  0  0  0  0  0
    4.7990   13.8660   11.0740 N   0  0  0  0  0  0  0  0  0  0  0  0
    6.0300   15.3820    9.5750 C   0  0  0  0  0  0  0  0  0  0  0  0
    5.6780   13.9420    9.9210 C   0  0  0  0  0  0  0  0  0  0  0  0
    6.7370   19.3850   19.7670 H   0  0  0  0  0  0  0  0  0  0  0  0
    8.5080   20.8180   18.9310 H   0  0  0  0  0  0  0  0  0  0  0  0
    4.4940   18.3880   19.4920 H   0  0  0  0  0  0  0  0  0  0  0  0
    9.0250   21.9480   15.8760 H   0  0  0  0  0  0  0  0  0  0  0  0
    8.1600   23.3660   16.4850 H   0  0  0  0  0  0  0  0  0  0  0  0
    9.2910   22.5140   17.5290 H   0  0  0  0  0  0  0  0  0  0  0  0
    1.0070   19.2690   16.6220 H   0  0  0  0  0  0  0  0  0  0  0  0
    0.5150   21.1780   15.1390 H   0  0  0  0  0  0  0  0  0  0  0  0
    2.2160   21.2780   14.7140 H   0  0  0  0  0  0  0  0  0  0  0  0
    0.8270   20.1380   12.9790 H   0  0  0  0  0  0  0  0  0  0  0  0
    2.8880   19.2720   12.5640 H   0  0  0  0  0  0  0  0  0  0  0  0
    3.2070   19.0220   14.2260 H   0  0  0  0  0  0  0  0  0  0  0  0
   -0.3440   18.6550   15.1630 H   0  0  0  0  0  0  0  0  0  0  0  0
   -0.5690   18.3980   13.4160 H   0  0  0  0  0  0  0  0  0  0  0  0
    1.3270   17.0420   15.2780 H   0  0  0  0  0  0  0  0  0  0  0  0
    0.3830   16.3350   14.0270 H   0  0  0  0  0  0  0  0  0  0  0  0
    2.9290   16.8320   13.6690 H   0  0  0  0  0  0  0  0  0  0  0  0
    1.4420   15.9330   11.9540 H   0  0  0  0  0  0  0  0  0  0  0  0
    0.9340   17.4980   11.5930 H   0  0  0  0  0  0  0  0  0  0  0  0
    2.7880   18.1690    9.0340 H   0  0  0  0  0  0  0  0  0  0  0  0
    1.9280   18.9340   10.3290 H   0  0  0  0  0  0  0  0  0  0  0  0
    3.6640   18.9910   10.3040 H   0  0  0  0  0  0  0  0  0  0  0  0
    4.2500   15.9970    8.5660 H   0  0  0  0  0  0  0  0  0  0  0  0
    5.0830   17.2780    9.3580 H   0  0  0  0  0  0  0  0  0  0  0  0
    4.8090   12.9980   11.6350 H   0  0  0  0  0  0  0  0  0  0  0  0
    6.5500   15.4090    8.6200 H   0  0  0  0  0  0  0  0  0  0  0  0
    6.6860   15.7810   10.3470 H   0  0  0  0  0  0  0  0  0  0  0  0
    6.5980   13.3920   10.1240 H   0  0  0  0  0  0  0  0  0  0  0  0
    5.1830   13.4820    9.0650 H   0  0  0  0  0  0  0  0  0  0  0  0
  1  2  1  0  0  0  0
  1  3  2  0  0  0  0
  1 35  1  0  0  0  0
  2  6  2  0  0  0  0
  2 36  1  0  0  0  0
  3  4  1  0  0  0  0
  3 17  1  0  0  0  0
  4  5  2  0  0  0  0
  4 37  1  0  0  0  0
  5  9  1  0  0  0  0
  5 11  1  0  0  0  0
  6  7  1  0  0  0  0
  6  8  1  0  0  0  0
  7 38  1  0  0  0  0
  7 39  1  0  0  0  0
  7 40  1  0  0  0  0
  8 10  1  0  0  0  0
  8 17  2  0  0  0  0
  9 16  1  0  0  0  0
  9 19  2  0  0  0  0
 10 12  2  0  0  0  0
 10 13  1  0  0  0  0
 11 14  1  0  0  0  0
 11 15  2  0  0  0  0
 16 18  1  0  0  0  0
 16 41  1  0  0  0  0
 17 19  1  0  0  0  0
 18 20  1  0  0  0  0
 18 42  1  0  0  0  0
 18 43  1  0  0  0  0
 20 21  1  0  0  0  0
 20 22  1  0  0  0  0
 20 44  1  0  0  0  0
 21 24  1  0  0  0  0
 21 45  1  0  0  0  0
 21 46  1  0  0  0  0
 22 23  1  0  0  0  0
 22 47  1  0  0  0  0
 22 48  1  0  0  0  0
 23 24  1  0  0  0  0
 23 49  1  0  0  0  0
 23 50  1  0  0  0  0
 24 25  1  0  0  0  0
 24 51  1  0  0  0  0
 25 26  1  0  0  0  0
 25 52  1  0  0  0  0
 25 53  1  0  0  0  0
 26 27  2  0  0  0  0
 26 30  1  0  0  0  0
 27 28  1  0  0  0  0
 27 31  1  0  0  0  0
 28 29  2  0  0  0  0
 28 32  1  0  0  0  0
 30 54  1  0  0  0  0
 30 55  1  0  0  0  0
 30 56  1  0  0  0  0
 31 33  1  0  0  0  0
 31 57  1  0  0  0  0
 31 58  1  0  0  0  0
 32 34  1  0  0  0  0
 32 59  1  0  0  0  0
 33 34  1  0  0  0  0
 33 60  1  0  0  0  0
 33 61  1  0  0  0  0
 34 62  1  0  0  0  0
 34 63  1  0  0  0  0
M  CHG  1  13  -1
M  CHG  1  14  -1
M  CHG  1  24   1
M  END
> <rseq>
1

> <mseq>
396

> <S>
-6.282891

> <rmsd_refine>
1.200422

> <E_conf>
-245.1461

> <E_score1>
-11.23674

> <E_refine>
-39.23857

> <E_score2>
-6.282891

>  <$File>
outputs/pdb_4j58_cleaned.pdb_2024_06_17__22_47_40_V2_BS398_MIN1_/SDF/sdf_db.sdf

> <Rec_index>
1

>  <PLIF_raw>
[[32,12,12,12,12],[1056,826,829,826,829],[70,54,54,54,54],[3,2,2,7,7],[2.7,7.5,1.6,5.232721545,2.890473396]]

> <FP:PLIF>
6 19 1 16 3 4

>  <PLIF_ligidx>
[[12,12],[12,12],[12,12],12,32,32]

$$$$
400
  MOE2022           3D

 53 55  0  0  1  0  0  0  0  0999 V2000
    2.2140   16.4760   20.1240 C   0  0  0  0  0  0  0  0  0  0  0  0
    0.9220   15.9880   20.2770 C   0  0  0  0  0  0  0  0  0  0  0  0
    2.6060   17.0440   18.9160 C   0  0  0  0  0  0  0  0  0  0  0  0
    0.0250   16.0680   19.2180 C   0  0  0  0  0  0  0  0  0  0  0  0
    0.4180   16.6410   18.0110 C   0  0  0  0  0  0  0  0  0  0  0  0
    1.7130   17.1350   17.8440 C   0  0  0  0  0  0  0  0  0  0  0  0
    2.0990   17.7530   16.4960 C   0  0  1  0  0  0  0  0  0  0  0  0
    3.3490   18.5410   16.5340 N   0  0  0  0  0  0  0  0  0  0  0  0
    2.1130   16.6760   15.3810 C   0  0  0  0  0  0  0  0  0  0  0  0
    3.4440   19.7660   17.1570 C   0  0  0  0  0  0  0  0  0  0  0  0
    2.5480   17.0390   13.9880 N   0  0  0  0  0  0  0  0  0  0  0  0
    2.3640   18.3070   13.4310 C   0  0  0  0  0  0  0  0  0  0  0  0
    1.6170   19.1110   14.0070 O   0  0  0  0  0  0  0  0  0  0  0  0
    3.0730   16.0450   13.1440 C   0  0  0  0  0  0  0  0  0  0  0  0
    4.7340   20.4200   17.2150 C   0  0  0  0  0  0  0  0  0  0  0  0
    3.0260   14.7710   13.6350 O   0  0  0  0  0  0  0  0  0  0  0  0
    3.6020   16.3490   11.9080 C   0  0  0  0  0  0  0  0  0  0  0  0
    4.2050   15.3140   11.0650 C   0  0  0  0  0  0  0  0  0  0  0  0
    3.7140   14.1490   11.0310 O   0  0  0  0  0  0  0  0  0  0  0  0
    2.4430   20.2450   17.6870 O   0  0  0  0  0  0  0  0  0  0  0  0
    3.0450   18.6190   12.1760 C   0  0  0  0  0  0  0  0  0  0  0  0
    5.2650   15.5660   10.4200 O   0  5  0  0  0  0  0  0  0  0  0  0
    3.0900   19.8360   11.7850 O   0  0  0  0  0  0  0  0  0  0  0  0
    3.6210   17.6710   11.4550 N   0  5  0  0  0  0  0  0  0  0  0  0
    5.3250   20.5730   18.6100 C   0  0  0  0  0  0  0  0  0  0  0  0
    5.3240   20.9940   16.1150 C   0  0  0  0  0  0  0  0  0  0  0  0
    4.6320   21.0840   14.8290 C   0  0  0  0  0  0  0  0  0  0  0  0
    4.9200   19.5460   19.5140 O   0  0  0  0  0  0  0  0  0  0  0  0
    4.9460   21.8260   19.1780 O   0  0  0  0  0  0  0  0  0  0  0  0
    6.6610   21.5890   16.1630 C   0  0  0  0  0  0  0  0  0  0  0  0
    7.2010   22.2540   15.1240 C   0  0  0  0  0  0  0  0  0  0  0  0
    5.1390   21.7530   13.7740 C   0  0  0  0  0  0  0  0  0  0  0  0
    6.4670   22.4740   13.8210 C   0  0  0  0  0  0  0  0  0  0  0  0
    6.2620   23.8760   13.6160 O   0  0  0  0  0  0  0  0  0  0  0  0
    2.9010   16.4170   20.9280 H   0  0  0  0  0  0  0  0  0  0  0  0
    0.6230   15.5600   21.1970 H   0  0  0  0  0  0  0  0  0  0  0  0
    3.5910   17.4100   18.8250 H   0  0  0  0  0  0  0  0  0  0  0  0
   -0.9600   15.6960   19.3290 H   0  0  0  0  0  0  0  0  0  0  0  0
   -0.2780   16.7020   17.2150 H   0  0  0  0  0  0  0  0  0  0  0  0
    1.2980   18.4390   16.2580 H   0  0  0  0  0  0  0  0  0  0  0  0
    4.1720   18.1600   16.0440 H   0  0  0  0  0  0  0  0  0  0  0  0
    2.7490   15.8830   15.7520 H   0  0  0  0  0  0  0  0  0  0  0  0
    1.1320   16.2260   15.3240 H   0  0  0  0  0  0  0  0  0  0  0  0
    3.3420   14.1560   12.9360 H   0  0  0  0  0  0  0  0  0  0  0  0
    6.4040   20.5350   18.5840 H   0  0  0  0  0  0  0  0  0  0  0  0
    3.6880   20.6140   14.7370 H   0  0  0  0  0  0  0  0  0  0  0  0
    3.9480   19.5420   19.5760 H   0  0  0  0  0  0  0  0  0  0  0  0
    4.0010   21.9780   19.0060 H   0  0  0  0  0  0  0  0  0  0  0  0
    7.2270   21.4870   17.0500 H   0  0  0  0  0  0  0  0  0  0  0  0
    8.1750   22.6630   15.1900 H   0  0  0  0  0  0  0  0  0  0  0  0
    4.6110   21.8070   12.8560 H   0  0  0  0  0  0  0  0  0  0  0  0
    7.0840   22.1270   13.0040 H   0  0  0  0  0  0  0  0  0  0  0  0
    7.1090   24.3470   13.6450 H   0  0  0  0  0  0  0  0  0  0  0  0
  1  2  2  0  0  0  0
  1  3  1  0  0  0  0
  1 35  1  0  0  0  0
  2  4  1  0  0  0  0
  2 36  1  0  0  0  0
  3  6  2  0  0  0  0
  3 37  1  0  0  0  0
  4  5  2  0  0  0  0
  4 38  1  0  0  0  0
  5  6  1  0  0  0  0
  5 39  1  0  0  0  0
  6  7  1  0  0  0  0
  7  8  1  0  0  0  0
  7  9  1  0  0  0  0
  7 40  1  0  0  0  0
  8 10  1  0  0  0  0
  8 41  1  0  0  0  0
  9 11  1  0  0  0  0
  9 42  1  0  0  0  0
  9 43  1  0  0  0  0
 10 15  1  0  0  0  0
 10 20  2  0  0  0  0
 11 12  1  0  0  0  0
 11 14  1  0  0  0  0
 12 13  2  0  0  0  0
 12 21  1  0  0  0  0
 14 16  1  0  0  0  0
 14 17  2  0  0  0  0
 15 25  1  0  0  0  0
 15 26  2  0  0  0  0
 16 44  1  0  0  0  0
 17 18  1  0  0  0  0
 17 24  1  0  0  0  0
 18 19  2  0  0  0  0
 18 22  1  0  0  0  0
 21 23  2  0  0  0  0
 21 24  1  0  0  0  0
 25 28  1  0  0  0  0
 25 29  1  0  0  0  0
 25 45  1  0  0  0  0
 26 27  1  0  0  0  0
 26 30  1  0  0  0  0
 27 32  2  0  0  0  0
 27 46  1  0  0  0  0
 28 47  1  0  0  0  0
 29 48  1  0  0  0  0
 30 31  2  0  0  0  0
 30 49  1  0  0  0  0
 31 33  1  0  0  0  0
 31 50  1  0  0  0  0
 32 33  1  0  0  0  0
 32 51  1  0  0  0  0
 33 34  1  0  0  0  0
 33 52  1  0  0  0  0
 34 53  1  0  0  0  0
M  CHG  1  22  -1
M  CHG  1  24  -1
M  END
> <rseq>
1

> <mseq>
401

> <S>
-6.145752

> <rmsd_refine>
1.385265

> <E_conf>
-139.1838

> <E_score1>
-12.43522

> <E_refine>
-35.38177

> <E_score2>
-6.145752

>  <$File>
outputs/pdb_4j58_cleaned.pdb_2024_06_17__22_47_40_V2_BS398_MIN1_/SDF/sdf_db.sdf

> <Rec_index>
1

>  <PLIF_raw>
[[28,22,22,23,24,24],[1504,823,823,829,823,829],[101,54,54,54,54,54],[3,2,7,7,7,7],[1.8,3.8,3.987726087,1.196053435,3.564704539,1.520150786]]

> <FP:PLIF>
6 19 1 16 8 10

>  <PLIF_ligidx>
[22,22,[22,23,24,24],[22,24],28,28]

$$$$
401
  MOE2022           3D

 66 68  0  0  1  0  0  0  0  0999 V2000
    5.8830   14.7490    9.9700 C   0  0  0  0  0  0  0  0  0  0  0  0
    5.7460   15.8960    9.1990 C   0  0  0  0  0  0  0  0  0  0  0  0
    4.6280   16.7040    9.3820 C   0  0  0  0  0  0  0  0  0  0  0  0
    4.9040   14.4130   10.9030 C   0  0  0  0  0  0  0  0  0  0  0  0
    3.7820   15.2270   11.0900 C   0  0  0  0  0  0  0  0  0  0  0  0
    4.4750   17.8230    8.6180 O   0  0  0  0  0  0  0  0  0  0  0  0
    3.6530   16.3870   10.3240 C   0  0  0  0  0  0  0  0  0  0  0  0
    2.7180   14.8250   12.1030 C   0  0  1  0  0  0  0  0  0  0  0  0
    3.1980   14.8790   13.4880 N   0  0  0  0  0  0  0  0  0  0  0  0
    1.5580   15.6810   12.0440 O   0  0  0  0  0  0  0  0  0  0  0  0
    2.0620   15.3590   14.2760 C   0  0  2  0  0  0  0  0  0  0  0  0
    1.3000   16.2680   13.3220 C   0  0  2  0  0  0  0  0  0  0  0  0
   -0.1750   16.4170   13.6400 C   0  0  0  0  0  0  0  0  0  0  0  0
   -0.8880   15.3900   13.6370 O   0  0  0  0  0  0  0  0  0  0  0  0
   -0.5730   17.5600   13.9550 O   0  5  0  0  0  0  0  0  0  0  0  0
    2.4130   16.0410   15.5850 C   0  0  0  0  0  0  0  0  0  0  0  0
    3.5260   16.4060   15.9070 O   0  0  0  0  0  0  0  0  0  0  0  0
    1.3500   16.2770   16.3800 O   0  0  0  0  0  0  0  0  0  0  0  0
    1.2560   17.0760   17.5040 C   0  0  0  0  0  0  0  0  0  0  0  0
    0.7100   16.3050   18.6870 C   0  0  0  0  0  0  0  0  0  0  0  0
    1.5460   18.3930   17.5110 C   0  0  0  0  0  0  0  0  0  0  0  0
    2.0120   19.2200   16.3170 C   0  0  0  0  0  0  0  0  0  0  0  0
    3.1440   20.2640   16.5790 C   0  0  1  0  0  0  0  0  0  0  0  0
    1.7500   15.6760   19.4730 O   0  0  0  0  0  0  0  0  0  0  0  0
    2.4940   16.5390   20.3540 C   0  0  0  0  0  0  0  0  0  0  0  0
    4.2510   19.6740   17.5010 C   0  0  0  0  0  0  0  0  0  0  0  0
    3.7270   20.6410   15.1970 C   0  0  0  0  0  0  0  0  0  0  0  0
    2.5260   21.5180   17.2400 C   0  0  0  0  0  0  0  0  0  0  0  0
    5.2780   20.6720   18.0970 C   0  0  1  0  0  0  0  0  0  0  0  0
    3.5670   22.5600   17.6730 C   0  0  0  0  0  0  0  0  0  0  0  0
    6.2360   21.0230   17.1160 O   0  0  0  0  0  0  0  0  0  0  0  0
    4.5830   21.9420   18.6380 C   0  0  0  0  0  0  0  0  0  0  0  0
    6.0260   19.9570   19.2470 C   0  0  0  0  0  0  0  0  0  0  0  0
    6.8850   20.8080   19.9870 O   0  0  0  0  0  0  0  0  0  0  0  0
    6.7290   14.1240    9.8450 H   0  0  0  0  0  0  0  0  0  0  0  0
    6.4760   16.1530    8.4760 H   0  0  0  0  0  0  0  0  0  0  0  0
    5.0150   13.5290   11.4750 H   0  0  0  0  0  0  0  0  0  0  0  0
    3.6360   18.2730    8.8360 H   0  0  0  0  0  0  0  0  0  0  0  0
    2.8160   17.0260   10.4410 H   0  0  0  0  0  0  0  0  0  0  0  0
    2.3760   13.8180   11.9000 H   0  0  0  0  0  0  0  0  0  0  0  0
    3.9340   15.5670   13.5360 H   0  0  0  0  0  0  0  0  0  0  0  0
    1.4280   14.5080   14.4910 H   0  0  0  0  0  0  0  0  0  0  0  0
    1.7700   17.2420   13.3150 H   0  0  0  0  0  0  0  0  0  0  0  0
    0.1400   16.9540   19.3340 H   0  0  0  0  0  0  0  0  0  0  0  0
    0.0350   15.5320   18.3460 H   0  0  0  0  0  0  0  0  0  0  0  0
    1.4120   18.9540   18.3960 H   0  0  0  0  0  0  0  0  0  0  0  0
    2.3090   18.5760   15.5080 H   0  0  0  0  0  0  0  0  0  0  0  0
    1.1480   19.7300   15.9110 H   0  0  0  0  0  0  0  0  0  0  0  0
    3.2110   15.9550   20.9290 H   0  0  0  0  0  0  0  0  0  0  0  0
    3.0310   17.2940   19.7800 H   0  0  0  0  0  0  0  0  0  0  0  0
    1.8090   17.0240   21.0460 H   0  0  0  0  0  0  0  0  0  0  0  0
    3.7670   19.1960   18.3500 H   0  0  0  0  0  0  0  0  0  0  0  0
    4.7820   18.8900   16.9600 H   0  0  0  0  0  0  0  0  0  0  0  0
    4.5010   21.4000   15.2750 H   0  0  0  0  0  0  0  0  0  0  0  0
    4.1590   19.7590   14.7230 H   0  0  0  0  0  0  0  0  0  0  0  0
    2.9350   21.0260   14.5530 H   0  0  0  0  0  0  0  0  0  0  0  0
    1.8260   21.9890   16.5480 H   0  0  0  0  0  0  0  0  0  0  0  0
    1.9610   21.2190   18.1230 H   0  0  0  0  0  0  0  0  0  0  0  0
    4.0830   22.9660   16.8040 H   0  0  0  0  0  0  0  0  0  0  0  0
    3.0560   23.3830   18.1750 H   0  0  0  0  0  0  0  0  0  0  0  0
    6.8020   21.7060   17.4810 H   0  0  0  0  0  0  0  0  0  0  0  0
    4.0550   21.6870   19.5550 H   0  0  0  0  0  0  0  0  0  0  0  0
    5.3330   22.6950   18.8840 H   0  0  0  0  0  0  0  0  0  0  0  0
    5.2910   19.5460   19.9400 H   0  0  0  0  0  0  0  0  0  0  0  0
    6.6100   19.1320   18.8410 H   0  0  0  0  0  0  0  0  0  0  0  0
    7.6770   20.9750   19.4670 H   0  0  0  0  0  0  0  0  0  0  0  0
  1  2  1  0  0  0  0
  1  4  2  0  0  0  0
  1 35  1  0  0  0  0
  2  3  2  0  0  0  0
  2 36  1  0  0  0  0
  3  6  1  0  0  0  0
  3  7  1  0  0  0  0
  4  5  1  0  0  0  0
  4 37  1  0  0  0  0
  5  7  2  0  0  0  0
  5  8  1  0  0  0  0
  6 38  1  0  0  0  0
  7 39  1  0  0  0  0
  8  9  1  0  0  0  0
  8 10  1  0  0  0  0
  8 40  1  0  0  0  0
  9 11  1  0  0  0  0
  9 41  1  0  0  0  0
 10 12  1  0  0  0  0
 11 12  1  0  0  0  0
 11 16  1  0  0  0  0
 11 42  1  0  0  0  0
 12 13  1  0  0  0  0
 12 43  1  0  0  0  0
 13 14  2  0  0  0  0
 13 15  1  0  0  0  0
 16 17  2  0  0  0  0
 16 18  1  0  0  0  0
 18 19  1  0  0  0  0
 19 20  1  0  0  0  0
 19 21  2  0  0  0  0
 20 24  1  0  0  0  0
 20 44  1  0  0  0  0
 20 45  1  0  0  0  0
 21 22  1  0  0  0  0
 21 46  1  0  0  0  0
 22 23  1  0  0  0  0
 22 47  1  0  0  0  0
 22 48  1  0  0  0  0
 23 26  1  0  0  0  0
 23 27  1  0  0  0  0
 23 28  1  0  0  0  0
 24 25  1  0  0  0  0
 25 49  1  0  0  0  0
 25 50  1  0  0  0  0
 25 51  1  0  0  0  0
 26 29  1  0  0  0  0
 26 52  1  0  0  0  0
 26 53  1  0  0  0  0
 27 54  1  0  0  0  0
 27 55  1  0  0  0  0
 27 56  1  0  0  0  0
 28 30  1  0  0  0  0
 28 57  1  0  0  0  0
 28 58  1  0  0  0  0
 29 31  1  0  0  0  0
 29 32  1  0  0  0  0
 29 33  1  0  0  0  0
 30 32  1  0  0  0  0
 30 59  1  0  0  0  0
 30 60  1  0  0  0  0
 31 61  1  0  0  0  0
 32 62  1  0  0  0  0
 32 63  1  0  0  0  0
 33 34  1  0  0  0  0
 33 64  1  0  0  0  0
 33 65  1  0  0  0  0
 34 66  1  0  0  0  0
M  CHG  1  15  -1
M  END
> <rseq>
1

> <mseq>
402

> <S>
-7.304527

> <rmsd_refine>
1.165552

> <E_conf>
14.54683

> <E_score1>
-9.918082

> <E_refine>
-39.51979

> <E_score2>
-7.304527

>  <$File>
outputs/pdb_4j58_cleaned.pdb_2024_06_17__22_47_40_V2_BS398_MIN1_/SDF/sdf_db.sdf

> <Rec_index>
1

>  <PLIF_raw>
[[17,1,2,3,7,5,4],[954,823,823,823,823,823,823],[62,54,54,54,54,54,54],[2,10,10,10,10,10,10],[1.4,0.9,0.9,0.9,0.9,0.9,0.9]]

> <FP:PLIF>
2 20

>  <PLIF_ligidx>
[[1,2,3,7,5,4],17]

$$$$
402
  MOE2022           3D

 57 61  0  0  1  0  0  0  0  0999 V2000
    6.8640   20.8230   18.2060 C   0  0  0  0  0  0  0  0  0  0  0  0
    6.2910   21.1110   16.9770 C   0  0  0  0  0  0  0  0  0  0  0  0
    6.2400   19.9240   19.0620 C   0  0  0  0  0  0  0  0  0  0  0  0
    5.0500   19.3040   18.6840 C   0  0  0  0  0  0  0  0  0  0  0  0
    5.0990   20.4890   16.6070 C   0  0  0  0  0  0  0  0  0  0  0  0
    4.5830   20.8540   15.3960 O   0  0  0  0  0  0  0  0  0  0  0  0
    4.4590   19.5500   17.4400 C   0  0  0  0  0  0  0  0  0  0  0  0
    3.1250   18.8590   17.0670 C   0  0  2  0  0  0  0  0  0  0  0  0
    2.8910   17.5090   17.6560 N   0  0  0  0  0  0  0  0  0  0  0  0
    2.9360   18.6630   15.6200 N   0  0  0  0  0  0  0  0  0  0  0  0
    2.1610   16.7530   16.6160 C   0  0  2  0  0  0  0  0  0  0  0  0
    2.4350   17.5480   15.3770 C   0  0  0  0  0  0  0  0  0  0  0  0
    2.0600   17.0690   13.9830 C   0  0  2  0  0  0  0  0  0  0  0  0
    0.6450   16.6260   16.8890 C   0  0  0  0  0  0  0  0  0  0  0  0
    2.6210   15.7070   13.5620 C   0  0  0  0  0  0  0  0  0  0  0  0
    2.1720   17.5640   18.9510 C   0  0  0  0  0  0  0  0  0  0  0  0
    2.4720   17.9890   12.8300 C   0  0  0  0  0  0  0  0  0  0  0  0
    2.5590   15.7350   12.0260 C   0  0  1  0  0  0  0  0  0  0  0  0
    1.4180   16.3450   19.2370 N   0  0  0  0  0  0  0  0  0  0  0  0
    2.5700   17.1440   11.6660 O   0  0  0  0  0  0  0  0  0  0  0  0
    3.6410   14.9570   11.2950 C   0  0  0  0  0  0  0  0  0  0  0  0
    1.2870   15.9220   20.5630 C   0  0  0  0  0  0  0  0  0  0  0  0
    3.3370   13.6740   10.9850 O   0  0  0  0  0  0  0  0  0  0  0  0
    0.3500   16.0530   18.2810 C   0  0  0  0  0  0  0  0  0  0  0  0
    4.7100   15.4340   10.9820 O   0  0  0  0  0  0  0  0  0  0  0  0
    4.1280   12.7460   10.3140 C   0  0  0  0  0  0  0  0  0  0  0  0
    5.5100   12.6720   10.5030 C   0  0  0  0  0  0  0  0  0  0  0  0
    6.2140   11.7160    9.7830 C   0  0  0  0  0  0  0  0  0  0  0  0
    7.5560   11.6380    9.9340 F   0  0  0  0  0  0  0  0  0  0  0  0
    5.5900   10.8340    8.9060 C   0  0  0  0  0  0  0  0  0  0  0  0
    4.2080   10.9140    8.7420 C   0  0  0  0  0  0  0  0  0  0  0  0
    0.2560   15.2670   20.8780 O   0  0  0  0  0  0  0  0  0  0  0  0
    2.2070   16.2000   21.3740 O   0  5  0  0  0  0  0  0  0  0  0  0
    3.4730   11.8680    9.4460 C   0  0  0  0  0  0  0  0  0  0  0  0
    7.7720   21.2880   18.4940 H   0  0  0  0  0  0  0  0  0  0  0  0
    6.7550   21.8050   16.3250 H   0  0  0  0  0  0  0  0  0  0  0  0
    6.6720   19.7090   20.0040 H   0  0  0  0  0  0  0  0  0  0  0  0
    4.6040   18.6330   19.3630 H   0  0  0  0  0  0  0  0  0  0  0  0
    3.7910   20.3080   15.2080 H   0  0  0  0  0  0  0  0  0  0  0  0
    2.3210   19.5080   17.3890 H   0  0  0  0  0  0  0  0  0  0  0  0
    2.6070   15.7720   16.5400 H   0  0  0  0  0  0  0  0  0  0  0  0
    0.9810   16.9890   13.9410 H   0  0  0  0  0  0  0  0  0  0  0  0
    0.1990   17.6200   16.8320 H   0  0  0  0  0  0  0  0  0  0  0  0
    0.1770   15.9950   16.1330 H   0  0  0  0  0  0  0  0  0  0  0  0
    3.6550   15.6300   13.8860 H   0  0  0  0  0  0  0  0  0  0  0  0
    2.0470   14.8750   13.9730 H   0  0  0  0  0  0  0  0  0  0  0  0
    2.8760   17.7600   19.7440 H   0  0  0  0  0  0  0  0  0  0  0  0
    1.4850   18.3990   18.9450 H   0  0  0  0  0  0  0  0  0  0  0  0
    1.7430   18.7810   12.6530 H   0  0  0  0  0  0  0  0  0  0  0  0
    3.4580   18.4210   13.0040 H   0  0  0  0  0  0  0  0  0  0  0  0
    1.5930   15.3500   11.7250 H   0  0  0  0  0  0  0  0  0  0  0  0
   -0.5930   16.4410   18.6410 H   0  0  0  0  0  0  0  0  0  0  0  0
    0.2180   14.9820   18.2170 H   0  0  0  0  0  0  0  0  0  0  0  0
    6.0120   13.3150   11.1770 H   0  0  0  0  0  0  0  0  0  0  0  0
    6.1560   10.1140    8.3730 H   0  0  0  0  0  0  0  0  0  0  0  0
    3.7140   10.2490    8.0810 H   0  0  0  0  0  0  0  0  0  0  0  0
    2.4230   11.9300    9.3200 H   0  0  0  0  0  0  0  0  0  0  0  0
  1  2  1  0  0  0  0
  1  3  2  0  0  0  0
  1 35  1  0  0  0  0
  2  5  2  0  0  0  0
  2 36  1  0  0  0  0
  3  4  1  0  0  0  0
  3 37  1  0  0  0  0
  4  7  2  0  0  0  0
  4 38  1  0  0  0  0
  5  6  1  0  0  0  0
  5  7  1  0  0  0  0
  6 39  1  0  0  0  0
  7  8  1  0  0  0  0
  8  9  1  0  0  0  0
  8 10  1  0  0  0  0
  8 40  1  0  0  0  0
  9 11  1  0  0  0  0
  9 16  1  0  0  0  0
 10 12  2  0  0  0  0
 11 12  1  0  0  0  0
 11 14  1  0  0  0  0
 11 41  1  0  0  0  0
 12 13  1  0  0  0  0
 13 15  1  0  0  0  0
 13 17  1  0  0  0  0
 13 42  1  0  0  0  0
 14 24  1  0  0  0  0
 14 43  1  0  0  0  0
 14 44  1  0  0  0  0
 15 18  1  0  0  0  0
 15 45  1  0  0  0  0
 15 46  1  0  0  0  0
 16 19  1  0  0  0  0
 16 47  1  0  0  0  0
 16 48  1  0  0  0  0
 17 20  1  0  0  0  0
 17 49  1  0  0  0  0
 17 50  1  0  0  0  0
 18 20  1  0  0  0  0
 18 21  1  0  0  0  0
 18 51  1  0  0  0  0
 19 22  1  0  0  0  0
 19 24  1  0  0  0  0
 21 23  1  0  0  0  0
 21 25  2  0  0  0  0
 22 32  2  0  0  0  0
 22 33  1  0  0  0  0
 23 26  1  0  0  0  0
 24 52  1  0  0  0  0
 24 53  1  0  0  0  0
 26 27  2  0  0  0  0
 26 34  1  0  0  0  0
 27 28  1  0  0  0  0
 27 54  1  0  0  0  0
 28 29  1  0  0  0  0
 28 30  2  0  0  0  0
 30 31  1  0  0  0  0
 30 55  1  0  0  0  0
 31 34  2  0  0  0  0
 31 56  1  0  0  0  0
 34 57  1  0  0  0  0
M  CHG  1  33  -1
M  END
> <rseq>
1

> <mseq>
403

> <S>
-6.816034

> <rmsd_refine>
2.734279

> <E_conf>
-172.2189

> <E_score1>
-10.53898

> <E_refine>
-46.05642

> <E_score2>
-6.816034

>  <$File>
outputs/pdb_4j58_cleaned.pdb_2024_06_17__22_47_40_V2_BS398_MIN1_/SDF/sdf_db.sdf

> <Rec_index>
1

>  <PLIF_raw>
[[9,25,32,32,32,32,26,27,28,30,31,34],[954,823,1206,1212,1206,1212,1057,1057,1057,1057,1057,1057],[62,54,81,81,81,81,70,70,70,70,70,70],[2,2,2,2,7,7,10,10,10,10,10,10],[2.5,0.8,5.5,4.8,4.130643341,5.417131172,1.1,1.1,1.1,1.1,1.1,1.1]]

> <FP:PLIF>
6 20 23 43 51 17 18 24 25

>  <PLIF_ligidx>
[25,9,9,[26,27,28,30,31,34],[26,27,28,30,31,34],[32,32],[32,32],[32,32],[32,32]]

$$$$
403
  MOE2022           3D

 56 60  0  0  1  0  0  0  0  0999 V2000
    5.5320   15.1460    9.7610 C   0  0  0  0  0  0  0  0  0  0  0  0
    5.2560   15.9970    8.6980 C   0  0  0  0  0  0  0  0  0  0  0  0
    4.5740   14.9930   10.7560 C   0  0  0  0  0  0  0  0  0  0  0  0
    6.1700   16.1480    7.7290 F   0  0  0  0  0  0  0  0  0  0  0  0
    3.3570   15.6940   10.6940 C   0  0  0  0  0  0  0  0  0  0  0  0
    2.3700   15.5670   11.7460 C   0  0  0  0  0  0  0  0  0  0  0  0
    4.0600   16.6940    8.5980 C   0  0  0  0  0  0  0  0  0  0  0  0
    3.1100   16.5360    9.5990 C   0  0  0  0  0  0  0  0  0  0  0  0
    2.7040   15.6290   13.0860 N   0  0  0  0  0  0  0  0  0  0  0  0
    1.0070   15.4170   11.6950 C   0  0  0  0  0  0  0  0  0  0  0  0
    1.5730   15.5370   13.8490 C   0  0  0  0  0  0  0  0  0  0  0  0
    1.6210   15.5950   15.2630 N   0  0  0  0  0  0  0  0  0  0  0  0
    0.5090   15.3900   12.9990 C   0  0  0  0  0  0  0  0  0  0  0  0
    0.4550   16.1540   15.9510 C   0  0  0  0  0  0  0  0  0  0  0  0
    2.7650   16.2330   15.9140 C   0  0  0  0  0  0  0  0  0  0  0  0
    2.3620   17.6730   16.2820 C   0  0  2  0  0  0  0  0  0  0  0  0
    3.1650   18.1550   17.5090 C   0  0  1  0  0  0  0  0  0  0  0  0
    0.8500   17.5010   16.5800 C   0  0  2  0  0  0  0  0  0  0  0  0
    2.6910   18.5700   15.0670 C   0  0  0  0  0  0  0  0  0  0  0  0
    3.8670   18.5210   14.6370 O   0  5  0  0  0  0  0  0  0  0  0  0
    2.9930   19.5860   17.7230 O   0  0  0  0  0  0  0  0  0  0  0  0
    4.0070   20.4320   18.1490 C   0  0  0  0  0  0  0  0  0  0  0  0
    3.8500   21.7950   17.9040 C   0  0  0  0  0  0  0  0  0  0  0  0
    4.8440   22.6840   18.3030 C   0  0  0  0  0  0  0  0  0  0  0  0
    5.1460   19.9560   18.8070 C   0  0  0  0  0  0  0  0  0  0  0  0
    5.9870   22.2140   18.9470 C   0  0  0  0  0  0  0  0  0  0  0  0
    6.1350   20.8520   19.2020 C   0  0  0  0  0  0  0  0  0  0  0  0
    2.8600   17.3560   18.8050 C   0  0  0  0  0  0  0  0  0  0  0  0
    1.4690   16.9190   18.9620 N   0  0  0  0  0  0  0  0  0  0  0  0
    0.4870   17.5620   18.0790 C   0  0  0  0  0  0  0  0  0  0  0  0
    1.8050   19.3080   14.5840 O   0  0  0  0  0  0  0  0  0  0  0  0
    1.0950   16.2270   20.1300 C   0  0  0  0  0  0  0  0  0  0  0  0
    1.9990   15.9230   20.9600 O   0  0  0  0  0  0  0  0  0  0  0  0
   -0.1180   15.9270   20.2990 O   0  5  0  0  0  0  0  0  0  0  0  0
    6.4510   14.6220    9.8090 H   0  0  0  0  0  0  0  0  0  0  0  0
    4.7590   14.3330   11.5640 H   0  0  0  0  0  0  0  0  0  0  0  0
    3.8760   17.3340    7.7740 H   0  0  0  0  0  0  0  0  0  0  0  0
    2.1940   17.0650    9.5410 H   0  0  0  0  0  0  0  0  0  0  0  0
    3.6530   15.7700   13.4660 H   0  0  0  0  0  0  0  0  0  0  0  0
    0.4340   15.3400   10.8070 H   0  0  0  0  0  0  0  0  0  0  0  0
   -0.5050   15.2820   13.2840 H   0  0  0  0  0  0  0  0  0  0  0  0
   -0.3900   16.2830   15.2910 H   0  0  0  0  0  0  0  0  0  0  0  0
    0.1360   15.4600   16.7170 H   0  0  0  0  0  0  0  0  0  0  0  0
    2.9860   15.6690   16.8080 H   0  0  0  0  0  0  0  0  0  0  0  0
    3.6720   16.1830   15.3310 H   0  0  0  0  0  0  0  0  0  0  0  0
    4.2150   18.0340   17.2620 H   0  0  0  0  0  0  0  0  0  0  0  0
    0.2490   18.2700   16.0970 H   0  0  0  0  0  0  0  0  0  0  0  0
    2.9800   22.1470   17.4130 H   0  0  0  0  0  0  0  0  0  0  0  0
    4.7330   23.7200   18.1120 H   0  0  0  0  0  0  0  0  0  0  0  0
    5.2630   18.9260   19.0120 H   0  0  0  0  0  0  0  0  0  0  0  0
    6.7460   22.8920   19.2430 H   0  0  0  0  0  0  0  0  0  0  0  0
    7.0030   20.4970   19.6960 H   0  0  0  0  0  0  0  0  0  0  0  0
    3.4640   16.4640   18.8180 H   0  0  0  0  0  0  0  0  0  0  0  0
    3.1740   17.9230   19.6690 H   0  0  0  0  0  0  0  0  0  0  0  0
    0.4140   18.6010   18.3620 H   0  0  0  0  0  0  0  0  0  0  0  0
   -0.5010   17.1490   18.2210 H   0  0  0  0  0  0  0  0  0  0  0  0
  1  2  2  0  0  0  0
  1  3  1  0  0  0  0
  1 35  1  0  0  0  0
  2  4  1  0  0  0  0
  2  7  1  0  0  0  0
  3  5  2  0  0  0  0
  3 36  1  0  0  0  0
  5  6  1  0  0  0  0
  5  8  1  0  0  0  0
  6  9  1  0  0  0  0
  6 10  2  0  0  0  0
  7  8  2  0  0  0  0
  7 37  1  0  0  0  0
  8 38  1  0  0  0  0
  9 11  1  0  0  0  0
  9 39  1  0  0  0  0
 10 13  1  0  0  0  0
 10 40  1  0  0  0  0
 11 12  1  0  0  0  0
 11 13  2  0  0  0  0
 12 14  1  0  0  0  0
 12 15  1  0  0  0  0
 13 41  1  0  0  0  0
 14 18  1  0  0  0  0
 14 42  1  0  0  0  0
 14 43  1  0  0  0  0
 15 16  1  0  0  0  0
 15 44  1  0  0  0  0
 15 45  1  0  0  0  0
 16 17  1  0  0  0  0
 16 18  1  0  0  0  0
 16 19  1  0  0  0  0
 17 21  1  0  0  0  0
 17 28  1  0  0  0  0
 17 46  1  0  0  0  0
 18 30  1  0  0  0  0
 18 47  1  0  0  0  0
 19 20  1  0  0  0  0
 19 31  2  0  0  0  0
 21 22  1  0  0  0  0
 22 23  1  0  0  0  0
 22 25  2  0  0  0  0
 23 24  2  0  0  0  0
 23 48  1  0  0  0  0
 24 26  1  0  0  0  0
 24 49  1  0  0  0  0
 25 27  1  0  0  0  0
 25 50  1  0  0  0  0
 26 27  2  0  0  0  0
 26 51  1  0  0  0  0
 27 52  1  0  0  0  0
 28 29  1  0  0  0  0
 28 53  1  0  0  0  0
 28 54  1  0  0  0  0
 29 30  1  0  0  0  0
 29 32  1  0  0  0  0
 30 55  1  0  0  0  0
 30 56  1  0  0  0  0
 32 33  2  0  0  0  0
 32 34  1  0  0  0  0
M  CHG  1  20  -1
M  CHG  1  34  -1
M  END
> <rseq>
1

> <mseq>
404

> <S>
-6.530808

> <rmsd_refine>
1.087851

> <E_conf>
-206.0032

> <E_score1>
-12.49207

> <E_refine>
-31.03135

> <E_score2>
-6.530808

>  <$File>
outputs/pdb_4j58_cleaned.pdb_2024_06_17__22_47_40_V2_BS398_MIN1_/SDF/sdf_db.sdf

> <Rec_index>
1

>  <PLIF_raw>
[[20,20,20,33,34,34],[823,826,829,1212,1206,1212],[54,54,54,81,81,81],[7,7,7,7,7,7],[2.006154433,4.182771786,0.5907085064,0.5081864684,0.9581251887,1.253810402]]

> <FP:PLIF>
1 16 24

>  <PLIF_ligidx>
[[20,20,20],20,[33,34,34]]

$$$$
404
  MOE2022           3D

 60 64  0  0  1  0  0  0  0  0999 V2000
    6.8060   20.8640   18.1830 C   0  0  0  0  0  0  0  0  0  0  0  0
    6.2300   21.1400   16.9510 C   0  0  0  0  0  0  0  0  0  0  0  0
    6.2040   19.9440   19.0320 C   0  0  0  0  0  0  0  0  0  0  0  0
    5.0350   19.2910   18.6460 C   0  0  0  0  0  0  0  0  0  0  0  0
    5.0590   20.4840   16.5730 C   0  0  0  0  0  0  0  0  0  0  0  0
    4.5360   20.8340   15.3610 O   0  0  0  0  0  0  0  0  0  0  0  0
    4.4430   19.5240   17.4000 C   0  0  0  0  0  0  0  0  0  0  0  0
    3.1340   18.8000   17.0100 C   0  0  2  0  0  0  0  0  0  0  0  0
    2.8990   17.4710   17.6380 N   0  0  0  0  0  0  0  0  0  0  0  0
    2.9940   18.5500   15.5670 N   0  0  0  0  0  0  0  0  0  0  0  0
    2.2000   16.6740   16.6080 C   0  0  2  0  0  0  0  0  0  0  0  0
    2.5060   17.4240   15.3480 C   0  0  0  0  0  0  0  0  0  0  0  0
    2.1660   16.9060   13.9560 C   0  0  2  0  0  0  0  0  0  0  0  0
    0.6770   16.5500   16.8490 C   0  0  0  0  0  0  0  0  0  0  0  0
    2.6910   15.5140   13.5810 C   0  0  0  0  0  0  0  0  0  0  0  0
    2.1580   17.5600   18.9190 C   0  0  0  0  0  0  0  0  0  0  0  0
    2.6390   17.7850   12.7930 C   0  0  0  0  0  0  0  0  0  0  0  0
    2.6650   15.5120   12.0410 C   0  0  1  0  0  0  0  0  0  0  0  0
    1.3980   16.3490   19.2230 N   0  0  0  0  0  0  0  0  0  0  0  0
    2.7610   16.9090   11.6540 O   0  0  0  0  0  0  0  0  0  0  0  0
    3.7010   14.6570   11.3250 C   0  0  0  0  0  0  0  0  0  0  0  0
    1.2590   15.9450   20.5540 C   0  0  0  0  0  0  0  0  0  0  0  0
    3.2750   13.4350   10.9290 O   0  0  0  0  0  0  0  0  0  0  0  0
    0.3490   16.0280   18.2550 C   0  0  0  0  0  0  0  0  0  0  0  0
    0.2230   15.3030   20.8780 O   0  0  0  0  0  0  0  0  0  0  0  0
    4.8230   15.0350   11.0690 O   0  0  0  0  0  0  0  0  0  0  0  0
    3.9750   12.4630   10.2200 C   0  0  0  0  0  0  0  0  0  0  0  0
    5.3300   12.2020   10.4450 C   0  0  0  0  0  0  0  0  0  0  0  0
    3.2510   11.7330    9.2810 C   0  0  0  0  0  0  0  0  0  0  0  0
    5.9660   11.2020    9.7110 C   0  0  0  0  0  0  0  0  0  0  0  0
    7.4250   10.8870    9.9580 C   0  0  0  0  0  0  0  0  0  0  0  0
    5.2430   10.4740    8.7660 C   0  0  0  0  0  0  0  0  0  0  0  0
    3.8910   10.7380    8.5520 C   0  0  0  0  0  0  0  0  0  0  0  0
    2.1790   16.2320   21.3630 O   0  5  0  0  0  0  0  0  0  0  0  0
    7.6980   21.3550   18.4770 H   0  0  0  0  0  0  0  0  0  0  0  0
    6.6760   21.8500   16.3030 H   0  0  0  0  0  0  0  0  0  0  0  0
    6.6380   19.7380   19.9760 H   0  0  0  0  0  0  0  0  0  0  0  0
    4.6060   18.6030   19.3200 H   0  0  0  0  0  0  0  0  0  0  0  0
    3.7650   20.2610   15.1670 H   0  0  0  0  0  0  0  0  0  0  0  0
    2.3100   19.4480   17.2830 H   0  0  0  0  0  0  0  0  0  0  0  0
    2.6540   15.6950   16.5780 H   0  0  0  0  0  0  0  0  0  0  0  0
    1.0870   16.8570   13.8820 H   0  0  0  0  0  0  0  0  0  0  0  0
    0.2300   17.5390   16.7450 H   0  0  0  0  0  0  0  0  0  0  0  0
    0.2300   15.8890   16.1060 H   0  0  0  0  0  0  0  0  0  0  0  0
    3.7110   15.4030   13.9370 H   0  0  0  0  0  0  0  0  0  0  0  0
    2.0750   14.7130   13.9930 H   0  0  0  0  0  0  0  0  0  0  0  0
    2.8490   17.7760   19.7170 H   0  0  0  0  0  0  0  0  0  0  0  0
    1.4730   18.3970   18.8810 H   0  0  0  0  0  0  0  0  0  0  0  0
    1.9330   18.5860   12.5700 H   0  0  0  0  0  0  0  0  0  0  0  0
    3.6260   18.2030   12.9920 H   0  0  0  0  0  0  0  0  0  0  0  0
    1.6810   15.1820   11.7330 H   0  0  0  0  0  0  0  0  0  0  0  0
    0.2110   14.9570   18.2280 H   0  0  0  0  0  0  0  0  0  0  0  0
   -0.5990   16.4340   18.5830 H   0  0  0  0  0  0  0  0  0  0  0  0
    5.8700   12.7460   11.1760 H   0  0  0  0  0  0  0  0  0  0  0  0
    2.2230   11.9350    9.1240 H   0  0  0  0  0  0  0  0  0  0  0  0
    7.8720   10.3820    9.1020 H   0  0  0  0  0  0  0  0  0  0  0  0
    7.9920   11.7990   10.1480 H   0  0  0  0  0  0  0  0  0  0  0  0
    7.5230   10.2300   10.8220 H   0  0  0  0  0  0  0  0  0  0  0  0
    5.7200    9.7090    8.2090 H   0  0  0  0  0  0  0  0  0  0  0  0
    3.3510   10.1780    7.8340 H   0  0  0  0  0  0  0  0  0  0  0  0
  1  2  1  0  0  0  0
  1  3  2  0  0  0  0
  1 35  1  0  0  0  0
  2  5  2  0  0  0  0
  2 36  1  0  0  0  0
  3  4  1  0  0  0  0
  3 37  1  0  0  0  0
  4  7  2  0  0  0  0
  4 38  1  0  0  0  0
  5  6  1  0  0  0  0
  5  7  1  0  0  0  0
  6 39  1  0  0  0  0
  7  8  1  0  0  0  0
  8  9  1  0  0  0  0
  8 10  1  0  0  0  0
  8 40  1  0  0  0  0
  9 11  1  0  0  0  0
  9 16  1  0  0  0  0
 10 12  2  0  0  0  0
 11 12  1  0  0  0  0
 11 14  1  0  0  0  0
 11 41  1  0  0  0  0
 12 13  1  0  0  0  0
 13 15  1  0  0  0  0
 13 17  1  0  0  0  0
 13 42  1  0  0  0  0
 14 24  1  0  0  0  0
 14 43  1  0  0  0  0
 14 44  1  0  0  0  0
 15 18  1  0  0  0  0
 15 45  1  0  0  0  0
 15 46  1  0  0  0  0
 16 19  1  0  0  0  0
 16 47  1  0  0  0  0
 16 48  1  0  0  0  0
 17 20  1  0  0  0  0
 17 49  1  0  0  0  0
 17 50  1  0  0  0  0
 18 20  1  0  0  0  0
 18 21  1  0  0  0  0
 18 51  1  0  0  0  0
 19 22  1  0  0  0  0
 19 24  1  0  0  0  0
 21 23  1  0  0  0  0
 21 26  2  0  0  0  0
 22 25  2  0  0  0  0
 22 34  1  0  0  0  0
 23 27  1  0  0  0  0
 24 52  1  0  0  0  0
 24 53  1  0  0  0  0
 27 28  1  0  0  0  0
 27 29  2  0  0  0  0
 28 30  2  0  0  0  0
 28 54  1  0  0  0  0
 29 33  1  0  0  0  0
 29 55  1  0  0  0  0
 30 31  1  0  0  0  0
 30 32  1  0  0  0  0
 31 56  1  0  0  0  0
 31 57  1  0  0  0  0
 31 58  1  0  0  0  0
 32 33  2  0  0  0  0
 32 59  1  0  0  0  0
 33 60  1  0  0  0  0
M  CHG  1  34  -1
M  END
> <rseq>
1

> <mseq>
405

> <S>
-7.00087

> <rmsd_refine>
2.958019

> <E_conf>
-175.2222

> <E_score1>
-10.29443

> <E_refine>
-47.27419

> <E_score2>
-7.00087

>  <$File>
outputs/pdb_4j58_cleaned.pdb_2024_06_17__22_47_40_V2_BS398_MIN1_/SDF/sdf_db.sdf

> <Rec_index>
1

>  <PLIF_raw>
[[9,25,25,25,25,27,28,30,32,33,29],[954,1206,1212,1206,1212,1057,1057,1057,1057,1057,1057],[62,81,81,81,81,70,70,70,70,70,70],[2,2,2,7,7,10,10,10,10,10,10],[2.6,5.6,4.4,4.08812755,5.184433062,1.1,1.1,1.1,1.1,1.1,1.1]]

> <FP:PLIF>
20 23 43 51 17 18 24 25

>  <PLIF_ligidx>
[9,9,[27,28,30,32,33,29],[27,28,30,32,33,29],[25,25],[25,25],[25,25],[25,25]]

$$$$
405
  MOE2022           3D

 60 64  0  0  1  0  0  0  0  0999 V2000
    7.4370   20.5050   18.4840 C   0  0  0  0  0  0  0  0  0  0  0  0
    6.9760   20.8520   17.2230 C   0  0  0  0  0  0  0  0  0  0  0  0
    6.5780   19.8890   19.3840 C   0  0  0  0  0  0  0  0  0  0  0  0
    5.2640   19.5970   19.0190 C   0  0  0  0  0  0  0  0  0  0  0  0
    5.6570   20.5720   16.8680 C   0  0  0  0  0  0  0  0  0  0  0  0
    5.2760   21.0000   15.6300 O   0  0  0  0  0  0  0  0  0  0  0  0
    4.7730   19.9120   17.7490 C   0  0  0  0  0  0  0  0  0  0  0  0
    3.3020   19.5480   17.4430 C   0  0  2  0  0  0  0  0  0  0  0  0
    3.0060   18.0850   17.4760 N   0  0  0  0  0  0  0  0  0  0  0  0
    2.8080   20.0170   16.1480 N   0  0  0  0  0  0  0  0  0  0  0  0
    2.0790   17.8530   16.3500 C   0  0  2  0  0  0  0  0  0  0  0  0
    2.1890   19.1170   15.5480 C   0  0  0  0  0  0  0  0  0  0  0  0
    1.5840   19.3310   14.1700 C   0  0  2  0  0  0  0  0  0  0  0  0
    0.6280   17.5750   16.7910 C   0  0  0  0  0  0  0  0  0  0  0  0
    1.3990   18.0620   13.3320 C   0  0  0  0  0  0  0  0  0  0  0  0
    2.4500   17.6710   18.7890 C   0  0  0  0  0  0  0  0  0  0  0  0
    2.4230   20.2400   13.2610 C   0  0  0  0  0  0  0  0  0  0  0  0
    1.4910   18.5270   11.8720 C   0  0  1  0  0  0  0  0  0  0  0  0
    1.6740   16.4290   18.7580 N   0  0  0  0  0  0  0  0  0  0  0  0
    2.2300   19.7720   11.9100 O   0  0  0  0  0  0  0  0  0  0  0  0
    2.1380   17.5150   10.9480 C   0  0  0  0  0  0  0  0  0  0  0  0
    1.4630   15.7690   19.9830 C   0  0  0  0  0  0  0  0  0  0  0  0
    3.4080   17.1790   11.2560 O   0  0  0  0  0  0  0  0  0  0  0  0
    0.5630   16.4190   17.7930 C   0  0  0  0  0  0  0  0  0  0  0  0
    0.5840   14.8610   20.0310 O   0  0  0  0  0  0  0  0  0  0  0  0
    1.5650   16.9850   10.0220 O   0  0  0  0  0  0  0  0  0  0  0  0
    4.1070   16.1760   10.6230 C   0  0  0  0  0  0  0  0  0  0  0  0
    4.9520   16.5310    9.5780 C   0  0  0  0  0  0  0  0  0  0  0  0
    3.9860   14.8540   11.0600 C   0  0  0  0  0  0  0  0  0  0  0  0
    2.1490   16.1170   20.9840 O   0  5  0  0  0  0  0  0  0  0  0  0
    3.0300   14.4660   12.1730 C   0  0  0  0  0  0  0  0  0  0  0  0
    5.7310   15.5510    8.9740 C   0  0  0  0  0  0  0  0  0  0  0  0
    4.7820   13.8850   10.4500 C   0  0  0  0  0  0  0  0  0  0  0  0
    5.6530   14.2320    9.4160 C   0  0  0  0  0  0  0  0  0  0  0  0
    8.4380   20.7150   18.7630 H   0  0  0  0  0  0  0  0  0  0  0  0
    7.6240   21.3340   16.5370 H   0  0  0  0  0  0  0  0  0  0  0  0
    6.9290   19.6400   20.3500 H   0  0  0  0  0  0  0  0  0  0  0  0
    4.6330   19.1300   19.7260 H   0  0  0  0  0  0  0  0  0  0  0  0
    4.3240   20.7970   15.5120 H   0  0  0  0  0  0  0  0  0  0  0  0
    2.6820   20.0380   18.1810 H   0  0  0  0  0  0  0  0  0  0  0  0
    2.4510   17.0080   15.7880 H   0  0  0  0  0  0  0  0  0  0  0  0
    0.6110   19.7900   14.2850 H   0  0  0  0  0  0  0  0  0  0  0  0
    0.2280   18.4700   17.2700 H   0  0  0  0  0  0  0  0  0  0  0  0
    0.0050   17.3400   15.9290 H   0  0  0  0  0  0  0  0  0  0  0  0
    2.2200   17.3750   13.5390 H   0  0  0  0  0  0  0  0  0  0  0  0
    0.4490   17.5650   13.5300 H   0  0  0  0  0  0  0  0  0  0  0  0
    3.2580   17.5950   19.5010 H   0  0  0  0  0  0  0  0  0  0  0  0
    1.7870   18.4450   19.1390 H   0  0  0  0  0  0  0  0  0  0  0  0
    2.1190   21.2850   13.3360 H   0  0  0  0  0  0  0  0  0  0  0  0
    3.4850   20.1460   13.4880 H   0  0  0  0  0  0  0  0  0  0  0  0
    0.5000   18.7670   11.5100 H   0  0  0  0  0  0  0  0  0  0  0  0
    0.5690   15.4840   17.2540 H   0  0  0  0  0  0  0  0  0  0  0  0
   -0.3880   16.4540   18.3080 H   0  0  0  0  0  0  0  0  0  0  0  0
    4.9990   17.5350    9.2470 H   0  0  0  0  0  0  0  0  0  0  0  0
    3.4610   14.6960   13.1470 H   0  0  0  0  0  0  0  0  0  0  0  0
    2.0810   14.9920   12.0810 H   0  0  0  0  0  0  0  0  0  0  0  0
    2.8050   13.4000   12.1360 H   0  0  0  0  0  0  0  0  0  0  0  0
    6.3800   15.8090    8.1790 H   0  0  0  0  0  0  0  0  0  0  0  0
    4.7280   12.8760   10.7690 H   0  0  0  0  0  0  0  0  0  0  0  0
    6.2520   13.4870    8.9600 H   0  0  0  0  0  0  0  0  0  0  0  0
  1  2  1  0  0  0  0
  1  3  2  0  0  0  0
  1 35  1  0  0  0  0
  2  5  2  0  0  0  0
  2 36  1  0  0  0  0
  3  4  1  0  0  0  0
  3 37  1  0  0  0  0
  4  7  2  0  0  0  0
  4 38  1  0  0  0  0
  5  6  1  0  0  0  0
  5  7  1  0  0  0  0
  6 39  1  0  0  0  0
  7  8  1  0  0  0  0
  8  9  1  0  0  0  0
  8 10  1  0  0  0  0
  8 40  1  0  0  0  0
  9 11  1  0  0  0  0
  9 16  1  0  0  0  0
 10 12  2  0  0  0  0
 11 12  1  0  0  0  0
 11 14  1  0  0  0  0
 11 41  1  0  0  0  0
 12 13  1  0  0  0  0
 13 15  1  0  0  0  0
 13 17  1  0  0  0  0
 13 42  1  0  0  0  0
 14 24  1  0  0  0  0
 14 43  1  0  0  0  0
 14 44  1  0  0  0  0
 15 18  1  0  0  0  0
 15 45  1  0  0  0  0
 15 46  1  0  0  0  0
 16 19  1  0  0  0  0
 16 47  1  0  0  0  0
 16 48  1  0  0  0  0
 17 20  1  0  0  0  0
 17 49  1  0  0  0  0
 17 50  1  0  0  0  0
 18 20  1  0  0  0  0
 18 21  1  0  0  0  0
 18 51  1  0  0  0  0
 19 22  1  0  0  0  0
 19 24  1  0  0  0  0
 21 23  1  0  0  0  0
 21 26  2  0  0  0  0
 22 25  2  0  0  0  0
 22 30  1  0  0  0  0
 23 27  1  0  0  0  0
 24 52  1  0  0  0  0
 24 53  1  0  0  0  0
 27 28  2  0  0  0  0
 27 29  1  0  0  0  0
 28 32  1  0  0  0  0
 28 54  1  0  0  0  0
 29 31  1  0  0  0  0
 29 33  2  0  0  0  0
 31 55  1  0  0  0  0
 31 56  1  0  0  0  0
 31 57  1  0  0  0  0
 32 34  2  0  0  0  0
 32 58  1  0  0  0  0
 33 34  1  0  0  0  0
 33 59  1  0  0  0  0
 34 60  1  0  0  0  0
M  CHG  1  30  -1
M  END
> <rseq>
1

> <mseq>
406

> <S>
-6.572757

> <rmsd_refine>
1.995037

> <E_conf>
-173.5492

> <E_score1>
-10.79776

> <E_refine>
-41.72617

> <E_score2>
-6.572757

>  <$File>
outputs/pdb_4j58_cleaned.pdb_2024_06_17__22_47_40_V2_BS398_MIN1_/SDF/sdf_db.sdf

> <Rec_index>
1

>  <PLIF_raw>
[[9,25,25,25,27,29,33,34,32,28],[954,1212,1206,1212,823,823,823,823,823,823],[62,81,81,81,54,54,54,54,54,54],[2,2,7,7,10,10,10,10,10,10],[1.6,9.2,0.9759100742,4.636292242,0.5,0.5,0.5,0.5,0.5,0.5]]

> <FP:PLIF>
2 20 23 17 18 24 25

>  <PLIF_ligidx>
[[27,29,33,34,32,28],9,9,25,25,[25,25],25]

$$$$
406
  MOE2022           3D

 66 69  0  0  1  0  0  0  0  0999 V2000
    7.1010   20.9910   19.4230 C   0  0  0  0  0  0  0  0  0  0  0  0
    6.2760   19.9370   19.0510 C   0  0  0  0  0  0  0  0  0  0  0  0
    5.0180   20.2020   18.5130 C   0  0  0  0  0  0  0  0  0  0  0  0
    4.2520   19.1190   18.1080 O   0  0  0  0  0  0  0  0  0  0  0  0
    3.1330   19.1620   17.1600 C   0  0  1  0  0  0  0  0  0  0  0  0
    4.5690   21.5190   18.3760 C   0  0  0  0  0  0  0  0  0  0  0  0
    6.6680   22.3050   19.2710 C   0  0  0  0  0  0  0  0  0  0  0  0
    5.4010   22.5680   18.7530 C   0  0  0  0  0  0  0  0  0  0  0  0
    3.6160   19.4250   15.7300 C   0  0  0  0  0  0  0  0  0  0  0  0
    4.4050   20.3480   15.5250 O   0  0  0  0  0  0  0  0  0  0  0  0
    2.2600   17.9030   17.3320 C   0  0  2  0  0  0  0  0  0  0  0  0
    3.1050   18.7200   14.6910 N   0  0  0  0  0  0  0  0  0  0  0  0
    1.2960   17.6950   16.1430 C   0  0  2  0  0  0  0  0  0  0  0  0
    2.2040   17.5540   14.8880 C   0  0  1  0  0  0  0  0  0  0  0  0
    1.5570   17.9940   18.5610 O   0  0  0  0  0  0  0  0  0  0  0  0
    3.3450   19.1730   13.3000 C   0  0  0  0  0  0  0  0  0  0  0  0
    0.3810   18.8560   15.9880 N   0  0  0  0  0  0  0  0  0  0  0  0
    0.4810   16.4000   16.3790 C   0  0  0  0  0  0  0  0  0  0  0  0
   -0.5870   16.2390   15.4660 O   0  0  0  0  0  0  0  0  0  0  0  0
    1.4320   17.3110   13.6670 O   0  0  0  0  0  0  0  0  0  0  0  0
    1.4830   15.9940   12.9990 C   0  0  2  0  0  0  0  0  0  0  0  0
    2.9290   15.4600   12.7940 C   0  0  0  0  0  0  0  0  0  0  0  0
    0.7410   16.0960   11.6890 C   0  0  0  0  0  0  0  0  0  0  0  0
   -0.0490   15.2480   11.2750 O   0  0  0  0  0  0  0  0  0  0  0  0
    3.2870   14.9040   11.3890 C   0  0  2  0  0  0  0  0  0  0  0  0
    1.2710   16.9890   10.8470 O   0  0  0  0  0  0  0  0  0  0  0  0
    2.0860   16.4980    9.7670 C   0  0  1  0  0  0  0  0  0  0  0  0
    4.4870   14.1740   11.5330 O   0  0  0  0  0  0  0  0  0  0  0  0
    2.2490   17.6000    8.7120 C   0  0  0  0  0  0  0  0  0  0  0  0
    3.4570   16.0070   10.3000 C   0  0  2  0  0  0  0  0  0  0  0  0
    4.3220   15.5450    9.1020 C   0  0  0  0  0  0  0  0  0  0  0  0
    4.4850   16.6510    8.0500 C   0  0  1  0  0  0  0  0  0  0  0  0
    5.2440   16.1630    6.9660 O   0  0  0  0  0  0  0  0  0  0  0  0
    3.1210   17.1290    7.5420 C   0  0  0  0  0  0  0  0  0  0  0  0
    8.0650   20.7970   19.8150 H   0  0  0  0  0  0  0  0  0  0  0  0
    6.6090   18.9400   19.1640 H   0  0  0  0  0  0  0  0  0  0  0  0
    2.5080   20.0000   17.4390 H   0  0  0  0  0  0  0  0  0  0  0  0
    3.6100   21.7310   17.9840 H   0  0  0  0  0  0  0  0  0  0  0  0
    7.3020   23.1060   19.5500 H   0  0  0  0  0  0  0  0  0  0  0  0
    5.0740   23.5690   18.6420 H   0  0  0  0  0  0  0  0  0  0  0  0
    2.9310   17.0450   17.3870 H   0  0  0  0  0  0  0  0  0  0  0  0
    2.8270   16.6850   15.0460 H   0  0  0  0  0  0  0  0  0  0  0  0
    2.1590   18.3190   19.2380 H   0  0  0  0  0  0  0  0  0  0  0  0
    4.0850   19.9560   13.2210 H   0  0  0  0  0  0  0  0  0  0  0  0
    3.6840   18.3680   12.6670 H   0  0  0  0  0  0  0  0  0  0  0  0
    2.4370   19.5640   12.8600 H   0  0  0  0  0  0  0  0  0  0  0  0
    0.9110   19.6910   15.7830 H   0  0  0  0  0  0  0  0  0  0  0  0
   -0.1460   18.9850   16.8410 H   0  0  0  0  0  0  0  0  0  0  0  0
    1.1460   15.5450   16.2970 H   0  0  0  0  0  0  0  0  0  0  0  0
    0.0520   16.4110   17.3810 H   0  0  0  0  0  0  0  0  0  0  0  0
   -1.0550   17.0780   15.4040 H   0  0  0  0  0  0  0  0  0  0  0  0
    0.9490   15.2920   13.6260 H   0  0  0  0  0  0  0  0  0  0  0  0
    3.6410   16.2450   13.0270 H   0  0  0  0  0  0  0  0  0  0  0  0
    3.0750   14.6640   13.5260 H   0  0  0  0  0  0  0  0  0  0  0  0
    2.5200   14.1970   11.0680 H   0  0  0  0  0  0  0  0  0  0  0  0
    1.5580   15.6590    9.3080 H   0  0  0  0  0  0  0  0  0  0  0  0
    4.3340   13.4270   12.1220 H   0  0  0  0  0  0  0  0  0  0  0  0
    1.2660   17.8830    8.3340 H   0  0  0  0  0  0  0  0  0  0  0  0
    2.7070   18.4770    9.1740 H   0  0  0  0  0  0  0  0  0  0  0  0
    3.9660   16.8570   10.7580 H   0  0  0  0  0  0  0  0  0  0  0  0
    5.3200   15.2720    9.4470 H   0  0  0  0  0  0  0  0  0  0  0  0
    3.8610   14.6700    8.6400 H   0  0  0  0  0  0  0  0  0  0  0  0
    5.0110   17.4950    8.4980 H   0  0  0  0  0  0  0  0  0  0  0  0
    6.1340   15.9700    7.2720 H   0  0  0  0  0  0  0  0  0  0  0  0
    2.6170   16.3120    7.0230 H   0  0  0  0  0  0  0  0  0  0  0  0
    3.2630   17.9550    6.8440 H   0  0  0  0  0  0  0  0  0  0  0  0
  1  2  1  0  0  0  0
  1  7  2  0  0  0  0
  1 35  1  0  0  0  0
  2  3  2  0  0  0  0
  2 36  1  0  0  0  0
  3  4  1  0  0  0  0
  3  6  1  0  0  0  0
  4  5  1  0  0  0  0
  5  9  1  0  0  0  0
  5 11  1  0  0  0  0
  5 37  1  0  0  0  0
  6  8  2  0  0  0  0
  6 38  1  0  0  0  0
  7  8  1  0  0  0  0
  7 39  1  0  0  0  0
  8 40  1  0  0  0  0
  9 10  2  0  0  0  0
  9 12  1  0  0  0  0
 11 13  1  0  0  0  0
 11 15  1  0  0  0  0
 11 41  1  0  0  0  0
 12 14  1  0  0  0  0
 12 16  1  0  0  0  0
 13 14  1  0  0  0  0
 13 17  1  0  0  0  0
 13 18  1  0  0  0  0
 14 20  1  0  0  0  0
 14 42  1  0  0  0  0
 15 43  1  0  0  0  0
 16 44  1  0  0  0  0
 16 45  1  0  0  0  0
 16 46  1  0  0  0  0
 17 47  1  0  0  0  0
 17 48  1  0  0  0  0
 18 19  1  0  0  0  0
 18 49  1  0  0  0  0
 18 50  1  0  0  0  0
 19 51  1  0  0  0  0
 20 21  1  0  0  0  0
 21 22  1  0  0  0  0
 21 23  1  0  0  0  0
 21 52  1  0  0  0  0
 22 25  1  0  0  0  0
 22 53  1  0  0  0  0
 22 54  1  0  0  0  0
 23 24  2  0  0  0  0
 23 26  1  0  0  0  0
 25 28  1  0  0  0  0
 25 30  1  0  0  0  0
 25 55  1  0  0  0  0
 26 27  1  0  0  0  0
 27 29  1  0  0  0  0
 27 30  1  0  0  0  0
 27 56  1  0  0  0  0
 28 57  1  0  0  0  0
 29 34  1  0  0  0  0
 29 58  1  0  0  0  0
 29 59  1  0  0  0  0
 30 31  1  0  0  0  0
 30 60  1  0  0  0  0
 31 32  1  0  0  0  0
 31 61  1  0  0  0  0
 31 62  1  0  0  0  0
 32 33  1  0  0  0  0
 32 34  1  0  0  0  0
 32 63  1  0  0  0  0
 33 64  1  0  0  0  0
 34 65  1  0  0  0  0
 34 66  1  0  0  0  0
M  END
> <rseq>
1

> <mseq>
407

> <S>
-5.884108

> <rmsd_refine>
1.711973

> <E_conf>
113.7636

> <E_score1>
-11.10499

> <E_refine>
-33.98376

> <E_score2>
-5.884108

>  <$File>
outputs/pdb_4j58_cleaned.pdb_2024_06_17__22_47_40_V2_BS398_MIN1_/SDF/sdf_db.sdf

> <Rec_index>
1

>  <PLIF_raw>
[28,1056,70,3,2.2]

> <FP:PLIF>
3 4

>  <PLIF_ligidx>
[28,28]

$$$$
407
  MOE2022           3D

 59 62  0  0  1  0  0  0  0  0999 V2000
    6.4770   20.1140   19.2470 C   0  0  0  0  0  0  0  0  0  0  0  0
    7.5330   20.9290   18.9190 C   0  0  0  0  0  0  0  0  0  0  0  0
    5.4420   19.8760   18.3180 C   0  0  0  0  0  0  0  0  0  0  0  0
    4.3600   19.0200   18.6180 C   0  0  0  0  0  0  0  0  0  0  0  0
    3.3980   18.7510   17.6690 C   0  0  0  0  0  0  0  0  0  0  0  0
    7.5870   21.5570   17.6630 C   0  0  0  0  0  0  0  0  0  0  0  0
    8.7570   22.4610   17.3610 C   0  0  0  0  0  0  0  0  0  0  0  0
    6.5680   21.3720   16.7340 C   0  0  0  0  0  0  0  0  0  0  0  0
    3.5410   19.3990   16.3950 C   0  0  0  0  0  0  0  0  0  0  0  0
    6.5760   22.0790   15.4570 C   0  0  0  0  0  0  0  0  0  0  0  0
    2.3000   17.8280   17.9910 C   0  0  0  0  0  0  0  0  0  0  0  0
    7.3730   21.7150   14.5460 O   0  0  0  0  0  0  0  0  0  0  0  0
    5.7970   23.0530   15.2860 O   0  5  0  0  0  0  0  0  0  0  0  0
    2.4610   16.9950   18.9260 O   0  5  0  0  0  0  0  0  0  0  0  0
    1.2090   17.8540   17.3550 O   0  0  0  0  0  0  0  0  0  0  0  0
    2.6280   19.1510   15.3860 N   0  0  0  0  0  0  0  0  0  0  0  0
    5.4940   20.4900   17.0450 C   0  0  0  0  0  0  0  0  0  0  0  0
    2.3230   20.1470   14.3540 C   0  0  0  0  0  0  0  0  0  0  0  0
    4.5300   20.2200   16.1160 N   0  0  0  0  0  0  0  0  0  0  0  0
    1.7710   19.5260   13.0650 C   0  0  1  0  0  0  0  0  0  0  0  0
    2.8180   18.6140   12.4040 C   0  0  0  0  0  0  0  0  0  0  0  0
    0.5560   18.6170   13.3070 C   0  0  0  0  0  0  0  0  0  0  0  0
    1.1120   17.1960   13.2760 C   0  0  0  0  0  0  0  0  0  0  0  0
    2.3230   17.1980   12.4050 N   0  3  1  0  0  0  0  0  0  0  0  0
    2.0470   16.6470   11.0340 C   0  0  0  0  0  0  0  0  0  0  0  0
    3.2360   16.5720   10.0940 C   0  0  0  0  0  0  0  0  0  0  0  0
    4.1810   15.5260   10.1470 C   0  0  0  0  0  0  0  0  0  0  0  0
    4.0850   14.4410   11.1280 C   0  0  0  0  0  0  0  0  0  0  0  0
    3.5960   14.5620   12.2440 O   0  0  0  0  0  0  0  0  0  0  0  0
    3.3650   17.5730    9.1340 C   0  0  0  0  0  0  0  0  0  0  0  0
    5.2400   15.5250    9.2250 C   0  0  0  0  0  0  0  0  0  0  0  0
    4.5650   13.2110   10.7970 N   0  0  0  0  0  0  0  0  0  0  0  0
    5.3460   16.5190    8.2650 C   0  0  0  0  0  0  0  0  0  0  0  0
    4.4120   17.5460    8.2200 C   0  0  0  0  0  0  0  0  0  0  0  0
    6.4420   19.6550   20.1990 H   0  0  0  0  0  0  0  0  0  0  0  0
    8.3110   21.0910   19.6190 H   0  0  0  0  0  0  0  0  0  0  0  0
    4.3020   18.5800   19.5780 H   0  0  0  0  0  0  0  0  0  0  0  0
    9.2070   22.2070   16.4020 H   0  0  0  0  0  0  0  0  0  0  0  0
    8.4160   23.4940   17.3260 H   0  0  0  0  0  0  0  0  0  0  0  0
    9.5280   22.3720   18.1250 H   0  0  0  0  0  0  0  0  0  0  0  0
    1.8080   18.6030   15.6990 H   0  0  0  0  0  0  0  0  0  0  0  0
    1.5850   20.8450   14.7510 H   0  0  0  0  0  0  0  0  0  0  0  0
    3.2120   20.7220   14.0910 H   0  0  0  0  0  0  0  0  0  0  0  0
    1.5160   20.3240   12.3660 H   0  0  0  0  0  0  0  0  0  0  0  0
    3.0270   18.9770   11.4060 H   0  0  0  0  0  0  0  0  0  0  0  0
    3.7580   18.7150   12.9310 H   0  0  0  0  0  0  0  0  0  0  0  0
    0.0520   18.8310   14.2510 H   0  0  0  0  0  0  0  0  0  0  0  0
   -0.1460   18.7320   12.4810 H   0  0  0  0  0  0  0  0  0  0  0  0
    1.3660   16.9120   14.2900 H   0  0  0  0  0  0  0  0  0  0  0  0
    0.3510   16.4910   12.9680 H   0  0  0  0  0  0  0  0  0  0  0  0
    3.0200   16.6040   12.8380 H   0  0  0  0  0  0  0  0  0  0  0  0
    1.6200   15.6550   11.1020 H   0  0  0  0  0  0  0  0  0  0  0  0
    1.2710   17.2180   10.5430 H   0  0  0  0  0  0  0  0  0  0  0  0
    2.6580   18.3610    9.0880 H   0  0  0  0  0  0  0  0  0  0  0  0
    5.9730   14.7600    9.2520 H   0  0  0  0  0  0  0  0  0  0  0  0
    4.5660   12.4590   11.5050 H   0  0  0  0  0  0  0  0  0  0  0  0
    4.9950   13.0350    9.8770 H   0  0  0  0  0  0  0  0  0  0  0  0
    6.1440   16.4960    7.5690 H   0  0  0  0  0  0  0  0  0  0  0  0
    4.4940   18.3080    7.4890 H   0  0  0  0  0  0  0  0  0  0  0  0
  1  2  1  0  0  0  0
  1  3  2  0  0  0  0
  1 35  1  0  0  0  0
  2  6  2  0  0  0  0
  2 36  1  0  0  0  0
  3  4  1  0  0  0  0
  3 17  1  0  0  0  0
  4  5  2  0  0  0  0
  4 37  1  0  0  0  0
  5  9  1  0  0  0  0
  5 11  1  0  0  0  0
  6  7  1  0  0  0  0
  6  8  1  0  0  0  0
  7 38  1  0  0  0  0
  7 39  1  0  0  0  0
  7 40  1  0  0  0  0
  8 10  1  0  0  0  0
  8 17  2  0  0  0  0
  9 16  1  0  0  0  0
  9 19  2  0  0  0  0
 10 12  2  0  0  0  0
 10 13  1  0  0  0  0
 11 14  1  0  0  0  0
 11 15  2  0  0  0  0
 16 18  1  0  0  0  0
 16 41  1  0  0  0  0
 17 19  1  0  0  0  0
 18 20  1  0  0  0  0
 18 42  1  0  0  0  0
 18 43  1  0  0  0  0
 20 21  1  0  0  0  0
 20 22  1  0  0  0  0
 20 44  1  0  0  0  0
 21 24  1  0  0  0  0
 21 45  1  0  0  0  0
 21 46  1  0  0  0  0
 22 23  1  0  0  0  0
 22 47  1  0  0  0  0
 22 48  1  0  0  0  0
 23 24  1  0  0  0  0
 23 49  1  0  0  0  0
 23 50  1  0  0  0  0
 24 25  1  0  0  0  0
 24 51  1  0  0  0  0
 25 26  1  0  0  0  0
 25 52  1  0  0  0  0
 25 53  1  0  0  0  0
 26 27  1  0  0  0  0
 26 30  2  0  0  0  0
 27 28  1  0  0  0  0
 27 31  2  0  0  0  0
 28 29  2  0  0  0  0
 28 32  1  0  0  0  0
 30 34  1  0  0  0  0
 30 54  1  0  0  0  0
 31 33  1  0  0  0  0
 31 55  1  0  0  0  0
 32 56  1  0  0  0  0
 32 57  1  0  0  0  0
 33 34  2  0  0  0  0
 33 58  1  0  0  0  0
 34 59  1  0  0  0  0
M  CHG  1  13  -1
M  CHG  1  14  -1
M  CHG  1  24   1
M  END
> <rseq>
1

> <mseq>
408

> <S>
-6.13527

> <rmsd_refine>
1.176196

> <E_conf>
-245.9016

> <E_score1>
-10.99817

> <E_refine>
-36.51279

> <E_score2>
-6.13527

>  <$File>
outputs/pdb_4j58_cleaned.pdb_2024_06_17__22_47_40_V2_BS398_MIN1_/SDF/sdf_db.sdf

> <Rec_index>
1

>  <PLIF_raw>
[[32,12,12,12,2,2,2,2,2,2,26,27,31,33,34,30],[1056,826,826,829,1651,1655,1659,1657,1653,1650,823,823,823,823,823,823],[70,54,54,54,112,112,112,112,112,112,54,54,54,54,54,54],[3,2,7,7,10,10,10,10,10,10,10,10,10,10,10,10],[3,5.2,5.333771757,1.930426857,0.5,0.5,0.5,0.5,0.5,0.5,1.2,1.2,1.2,1.2,1.2,1.2]]

> <FP:PLIF>
6 19 1 16 2 5 3 4 15

>  <PLIF_ligidx>
[12,12,[12,12],12,[26,27,31,33,34,30],[26,27,31,33,34,30],32,32,[2,2,2,2,2,2]]

$$$$
408
  MOE2022           3D

 59 62  0  0  1  0  0  0  0  0999 V2000
    3.5410   17.6700   19.6700 O   0  0  0  0  0  0  0  0  0  0  0  0
    2.6060   17.3100   18.9440 C   0  0  0  0  0  0  0  0  0  0  0  0
    1.5030   16.5040   19.3910 C   0  0  0  0  0  0  0  0  0  0  0  0
    2.6150   17.6910   17.5980 N   0  0  0  0  0  0  0  0  0  0  0  0
    0.5410   16.1400   18.4980 C   0  0  0  0  0  0  0  0  0  0  0  0
    1.6280   17.2100   16.7220 C   0  0  0  0  0  0  0  0  0  0  0  0
    0.6360   16.4980   17.1730 N   0  0  0  0  0  0  0  0  0  0  0  0
    1.7730   17.4880   15.3030 C   0  0  0  0  0  0  0  0  0  0  0  0
    3.6870   18.6130   17.1210 C   0  0  0  0  0  0  0  0  0  0  0  0
    1.4440   16.0800   20.8510 C   0  0  0  0  0  0  0  0  0  0  0  0
   -0.6600   15.2960   18.8740 C   0  0  0  0  0  0  0  0  0  0  0  0
    3.4190   20.1150   17.3370 C   0  0  1  0  0  0  0  0  0  0  0  0
    4.6410   20.8160   17.8530 C   0  0  0  0  0  0  0  0  0  0  0  0
    1.0390   18.5110   14.6880 C   0  0  0  0  0  0  0  0  0  0  0  0
    3.1700   20.8880   16.0300 C   0  0  0  0  0  0  0  0  0  0  0  0
    1.2220   18.8000   13.3400 C   0  0  0  0  0  0  0  0  0  0  0  0
    2.1460   18.0650   12.5920 C   0  0  0  0  0  0  0  0  0  0  0  0
    2.3040   18.4010   11.2690 O   0  0  0  0  0  0  0  0  0  0  0  0
    2.6600   16.7340   14.5140 C   0  0  0  0  0  0  0  0  0  0  0  0
    3.3360   15.6880   15.0690 O   0  0  0  0  0  0  0  0  0  0  0  0
    4.2510   21.8760   15.8640 O   0  0  0  0  0  0  0  0  0  0  0  0
    3.5690   18.3820   10.5530 C   0  0  0  0  0  0  0  0  0  0  0  0
    2.8660   17.0200   13.1690 C   0  0  0  0  0  0  0  0  0  0  0  0
    5.0570   21.7870   16.9660 C   0  0  0  0  0  0  0  0  0  0  0  0
    6.1850   22.5660   17.2010 C   0  0  0  0  0  0  0  0  0  0  0  0
    6.9080   22.3470   18.3720 C   0  0  0  0  0  0  0  0  0  0  0  0
    3.5040   17.5620    9.2550 C   0  0  1  0  0  0  0  0  0  0  0  0
    6.4980   21.3670   19.2810 C   0  0  0  0  0  0  0  0  0  0  0  0
    5.3580   20.6000   19.0260 C   0  0  0  0  0  0  0  0  0  0  0  0
    4.5060   18.0000    8.3610 O   0  0  0  0  0  0  0  0  0  0  0  0
    3.6210   16.0430    9.4740 C   0  0  0  0  0  0  0  0  0  0  0  0
    4.8890   15.5790   10.1980 C   0  0  0  0  0  0  0  0  0  0  0  0
    5.9690   16.1630    9.9600 O   0  5  0  0  0  0  0  0  0  0  0  0
    4.7580   14.6370   11.0040 O   0  0  0  0  0  0  0  0  0  0  0  0
    4.6050   18.3880   17.6340 H   0  0  0  0  0  0  0  0  0  0  0  0
    3.9600   18.4250   16.0940 H   0  0  0  0  0  0  0  0  0  0  0  0
    0.6780   16.6280   21.3820 H   0  0  0  0  0  0  0  0  0  0  0  0
    1.2250   15.0260   20.9400 H   0  0  0  0  0  0  0  0  0  0  0  0
    2.3780   16.2400   21.3710 H   0  0  0  0  0  0  0  0  0  0  0  0
   -1.1030   15.6160   19.8060 H   0  0  0  0  0  0  0  0  0  0  0  0
   -1.4360   15.3490   18.1210 H   0  0  0  0  0  0  0  0  0  0  0  0
   -0.3840   14.2560   18.9760 H   0  0  0  0  0  0  0  0  0  0  0  0
    2.5980   20.2620   18.0380 H   0  0  0  0  0  0  0  0  0  0  0  0
    0.3440   19.0740   15.2570 H   0  0  0  0  0  0  0  0  0  0  0  0
    3.1700   20.2200   15.1690 H   0  0  0  0  0  0  0  0  0  0  0  0
    2.2160   21.4130   16.0870 H   0  0  0  0  0  0  0  0  0  0  0  0
    0.6680   19.5770   12.8800 H   0  0  0  0  0  0  0  0  0  0  0  0
    2.9810   15.4730   15.9560 H   0  0  0  0  0  0  0  0  0  0  0  0
    3.8110   19.4140   10.2970 H   0  0  0  0  0  0  0  0  0  0  0  0
    4.3600   18.0040   11.1950 H   0  0  0  0  0  0  0  0  0  0  0  0
    3.5410   16.4390   12.5970 H   0  0  0  0  0  0  0  0  0  0  0  0
    6.4850   23.3070   16.5050 H   0  0  0  0  0  0  0  0  0  0  0  0
    7.7740   22.9230   18.5740 H   0  0  0  0  0  0  0  0  0  0  0  0
    2.5420   17.7640    8.7830 H   0  0  0  0  0  0  0  0  0  0  0  0
    7.0570   21.2030   20.1660 H   0  0  0  0  0  0  0  0  0  0  0  0
    5.0500   19.8580   19.7160 H   0  0  0  0  0  0  0  0  0  0  0  0
    5.3510   17.6650    8.6820 H   0  0  0  0  0  0  0  0  0  0  0  0
    2.7550   15.7140   10.0480 H   0  0  0  0  0  0  0  0  0  0  0  0
    3.5820   15.5450    8.5050 H   0  0  0  0  0  0  0  0  0  0  0  0
  1  2  2  0  0  0  0
  2  3  1  0  0  0  0
  2  4  1  0  0  0  0
  3  5  2  0  0  0  0
  3 10  1  0  0  0  0
  4  6  1  0  0  0  0
  4  9  1  0  0  0  0
  5  7  1  0  0  0  0
  5 11  1  0  0  0  0
  6  7  2  0  0  0  0
  6  8  1  0  0  0  0
  8 14  1  0  0  0  0
  8 19  2  0  0  0  0
  9 12  1  0  0  0  0
  9 35  1  0  0  0  0
  9 36  1  0  0  0  0
 10 37  1  0  0  0  0
 10 38  1  0  0  0  0
 10 39  1  0  0  0  0
 11 40  1  0  0  0  0
 11 41  1  0  0  0  0
 11 42  1  0  0  0  0
 12 13  1  0  0  0  0
 12 15  1  0  0  0  0
 12 43  1  0  0  0  0
 13 24  2  0  0  0  0
 13 29  1  0  0  0  0
 14 16  2  0  0  0  0
 14 44  1  0  0  0  0
 15 21  1  0  0  0  0
 15 45  1  0  0  0  0
 15 46  1  0  0  0  0
 16 17  1  0  0  0  0
 16 47  1  0  0  0  0
 17 18  1  0  0  0  0
 17 23  2  0  0  0  0
 18 22  1  0  0  0  0
 19 20  1  0  0  0  0
 19 23  1  0  0  0  0
 20 48  1  0  0  0  0
 21 24  1  0  0  0  0
 22 27  1  0  0  0  0
 22 49  1  0  0  0  0
 22 50  1  0  0  0  0
 23 51  1  0  0  0  0
 24 25  1  0  0  0  0
 25 26  2  0  0  0  0
 25 52  1  0  0  0  0
 26 28  1  0  0  0  0
 26 53  1  0  0  0  0
 27 30  1  0  0  0  0
 27 31  1  0  0  0  0
 27 54  1  0  0  0  0
 28 29  2  0  0  0  0
 28 55  1  0  0  0  0
 29 56  1  0  0  0  0
 30 57  1  0  0  0  0
 31 32  1  0  0  0  0
 31 58  1  0  0  0  0
 31 59  1  0  0  0  0
 32 33  1  0  0  0  0
 32 34  2  0  0  0  0
M  CHG  1  33  -1
M  END
> <rseq>
1

> <mseq>
409

> <S>
-6.621586

> <rmsd_refine>
0.7544163

> <E_conf>
-161.9344

> <E_score1>
-14.33862

> <E_refine>
-35.66508

> <E_score2>
-6.621586

>  <$File>
outputs/pdb_4j58_cleaned.pdb_2024_06_17__22_47_40_V2_BS398_MIN1_/SDF/sdf_db.sdf

> <Rec_index>
1

>  <PLIF_raw>
[[30,33,33,33,34,2,4,6,7,5,3],[2222,823,823,829,823,954,954,954,954,954,954],[148,54,54,54,54,62,62,62,62,62,62],[3,2,7,7,7,10,10,10,10,10,10],[0.5,3.2,4.439526789,0.7270375177,1.784842504,0.5,0.5,0.5,0.5,0.5,0.5]]

> <FP:PLIF>
6 19 1 16 21 39

>  <PLIF_ligidx>
[33,33,[33,33,34],33,[2,4,6,7,5,3],30]

$$$$
418
  MOE2022           3D

 70 74  0  0  1  0  0  0  0  0999 V2000
    2.6530   16.4790   20.5580 C   0  0  0  0  0  0  0  0  0  0  0  0
    1.3670   15.9650   20.6640 C   0  0  0  0  0  0  0  0  0  0  0  0
    2.9880   17.3050   19.4900 C   0  0  0  0  0  0  0  0  0  0  0  0
    0.4170   16.2740   19.6980 C   0  0  0  0  0  0  0  0  0  0  0  0
    0.7540   17.0990   18.6280 C   0  0  0  0  0  0  0  0  0  0  0  0
    2.0420   17.6230   18.5140 C   0  0  0  0  0  0  0  0  0  0  0  0
    2.4020   18.4840   17.3080 C   0  0  1  0  0  0  0  0  0  0  0  0
    3.3760   19.5370   17.6410 N   0  0  0  0  0  0  0  0  0  0  0  0
    2.8900   17.5960   16.1730 C   0  0  0  0  0  0  0  0  0  0  0  0
    3.1050   20.8480   17.7130 C   0  0  0  0  0  0  0  0  0  0  0  0
    1.9440   16.9240   15.5030 N   0  0  0  0  0  0  0  0  0  0  0  0
    1.9960   21.2910   17.4140 O   0  0  0  0  0  0  0  0  0  0  0  0
    4.2450   21.8210   18.1310 C   0  0  2  0  0  0  0  0  0  0  0  0
    4.0870   17.4050   15.9770 O   0  0  0  0  0  0  0  0  0  0  0  0
    2.2200   15.7550   14.6810 C   0  0  1  0  0  0  0  0  0  0  0  0
    5.3340   21.1540   19.0280 C   0  0  0  0  0  0  0  0  0  0  0  0
    3.6260   22.9790   18.9530 C   0  0  0  0  0  0  0  0  0  0  0  0
    4.9240   22.4380   16.8730 C   0  0  1  0  0  0  0  0  0  0  0  0
    5.9480   23.3600   17.2440 O   0  0  0  0  0  0  0  0  0  0  0  0
    5.6970   21.3980   16.0610 C   0  0  0  0  0  0  0  0  0  0  0  0
    6.4390   20.4070   18.2420 C   0  0  1  0  0  0  0  0  0  0  0  0
    6.8880   21.2040   16.9930 C   0  0  2  0  0  0  0  0  0  0  0  0
    7.6290   20.0880   19.1570 C   0  0  0  0  0  0  0  0  0  0  0  0
    0.9650   15.1190   14.1000 C   0  0  0  0  0  0  0  0  0  0  0  0
    3.0420   16.0500   13.5460 O   0  0  0  0  0  0  0  0  0  0  0  0
    1.4140   14.4750   12.7930 C   0  0  0  0  0  0  0  0  0  0  0  0
    2.5010   15.4640   12.3250 C   0  0  1  0  0  0  0  0  0  0  0  0
    7.1980   22.6800   17.2770 C   0  0  0  0  0  0  0  0  0  0  0  0
    2.0090   16.6100   11.4450 C   0  0  0  0  0  0  0  0  0  0  0  0
    3.6390   14.9010   11.4580 C   0  0  2  0  0  0  0  0  0  0  0  0
    3.3090   17.1010   10.8060 C   0  0  0  0  0  0  0  0  0  0  0  0
    4.2500   16.0360   10.8580 O   0  0  0  0  0  0  0  0  0  0  0  0
    3.2070   13.9300   10.3430 C   0  0  0  0  0  0  0  0  0  0  0  0
    3.1330   12.6030   10.8240 O   0  0  0  0  0  0  0  0  0  0  0  0
    3.3790   16.2390   21.2900 H   0  0  0  0  0  0  0  0  0  0  0  0
    1.1150   15.3400   21.4800 H   0  0  0  0  0  0  0  0  0  0  0  0
    3.9690   17.6950   19.4270 H   0  0  0  0  0  0  0  0  0  0  0  0
   -0.5640   15.8820   19.7740 H   0  0  0  0  0  0  0  0  0  0  0  0
    0.0220   17.3240   17.8950 H   0  0  0  0  0  0  0  0  0  0  0  0
    1.4850   18.9520   16.9730 H   0  0  0  0  0  0  0  0  0  0  0  0
    4.3070   19.2310   17.8710 H   0  0  0  0  0  0  0  0  0  0  0  0
    0.9810   17.0820   15.7540 H   0  0  0  0  0  0  0  0  0  0  0  0
    2.7570   15.0210   15.2660 H   0  0  0  0  0  0  0  0  0  0  0  0
    5.8310   21.9340   19.6050 H   0  0  0  0  0  0  0  0  0  0  0  0
    4.8690   20.4750   19.7440 H   0  0  0  0  0  0  0  0  0  0  0  0
    2.9090   23.5320   18.3440 H   0  0  0  0  0  0  0  0  0  0  0  0
    3.1070   22.5830   19.8260 H   0  0  0  0  0  0  0  0  0  0  0  0
    4.3940   23.6780   19.2860 H   0  0  0  0  0  0  0  0  0  0  0  0
    4.1750   22.9290   16.2520 H   0  0  0  0  0  0  0  0  0  0  0  0
    5.1370   20.4790   15.8920 H   0  0  0  0  0  0  0  0  0  0  0  0
    6.0130   21.8260   15.1080 H   0  0  0  0  0  0  0  0  0  0  0  0
    6.0380   19.4550   17.9000 H   0  0  0  0  0  0  0  0  0  0  0  0
    7.7160   20.7080   16.4850 H   0  0  0  0  0  0  0  0  0  0  0  0
    8.3870   19.5360   18.6000 H   0  0  0  0  0  0  0  0  0  0  0  0
    8.0750   21.0040   19.5460 H   0  0  0  0  0  0  0  0  0  0  0  0
    7.2940   19.4770   19.9940 H   0  0  0  0  0  0  0  0  0  0  0  0
    0.5390   14.3920   14.7900 H   0  0  0  0  0  0  0  0  0  0  0  0
    0.2300   15.8950   13.8800 H   0  0  0  0  0  0  0  0  0  0  0  0
    1.8640   13.5070   13.0130 H   0  0  0  0  0  0  0  0  0  0  0  0
    0.5970   14.3740   12.0780 H   0  0  0  0  0  0  0  0  0  0  0  0
    7.8360   23.0760   16.4860 H   0  0  0  0  0  0  0  0  0  0  0  0
    7.6920   22.8130   18.2400 H   0  0  0  0  0  0  0  0  0  0  0  0
    1.3330   16.2440   10.6720 H   0  0  0  0  0  0  0  0  0  0  0  0
    1.5280   17.3960   12.0300 H   0  0  0  0  0  0  0  0  0  0  0  0
    4.3620   14.3860   12.0860 H   0  0  0  0  0  0  0  0  0  0  0  0
    3.1330   17.4110    9.7750 H   0  0  0  0  0  0  0  0  0  0  0  0
    3.7000   17.9420   11.3810 H   0  0  0  0  0  0  0  0  0  0  0  0
    2.2420   14.2250    9.9300 H   0  0  0  0  0  0  0  0  0  0  0  0
    3.9500   13.9600    9.5450 H   0  0  0  0  0  0  0  0  0  0  0  0
    3.9590   12.3920   11.2680 H   0  0  0  0  0  0  0  0  0  0  0  0
  1  2  2  0  0  0  0
  1  3  1  0  0  0  0
  1 35  1  0  0  0  0
  2  4  1  0  0  0  0
  2 36  1  0  0  0  0
  3  6  2  0  0  0  0
  3 37  1  0  0  0  0
  4  5  2  0  0  0  0
  4 38  1  0  0  0  0
  5  6  1  0  0  0  0
  5 39  1  0  0  0  0
  6  7  1  0  0  0  0
  7  8  1  0  0  0  0
  7  9  1  0  0  0  0
  7 40  1  0  0  0  0
  8 10  1  0  0  0  0
  8 41  1  0  0  0  0
  9 11  1  0  0  0  0
  9 14  2  0  0  0  0
 10 12  2  0  0  0  0
 10 13  1  0  0  0  0
 11 15  1  0  0  0  0
 11 42  1  0  0  0  0
 13 16  1  0  0  0  0
 13 17  1  0  0  0  0
 13 18  1  0  0  0  0
 15 24  1  0  0  0  0
 15 25  1  0  0  0  0
 15 43  1  0  0  0  0
 16 21  1  0  0  0  0
 16 44  1  0  0  0  0
 16 45  1  0  0  0  0
 17 46  1  0  0  0  0
 17 47  1  0  0  0  0
 17 48  1  0  0  0  0
 18 19  1  0  0  0  0
 18 20  1  0  0  0  0
 18 49  1  0  0  0  0
 19 28  1  0  0  0  0
 20 22  1  0  0  0  0
 20 50  1  0  0  0  0
 20 51  1  0  0  0  0
 21 22  1  0  0  0  0
 21 23  1  0  0  0  0
 21 52  1  0  0  0  0
 22 28  1  0  0  0  0
 22 53  1  0  0  0  0
 23 54  1  0  0  0  0
 23 55  1  0  0  0  0
 23 56  1  0  0  0  0
 24 26  1  0  0  0  0
 24 57  1  0  0  0  0
 24 58  1  0  0  0  0
 25 27  1  0  0  0  0
 26 27  1  0  0  0  0
 26 59  1  0  0  0  0
 26 60  1  0  0  0  0
 27 29  1  0  0  0  0
 27 30  1  0  0  0  0
 28 61  1  0  0  0  0
 28 62  1  0  0  0  0
 29 31  1  0  0  0  0
 29 63  1  0  0  0  0
 29 64  1  0  0  0  0
 30 32  1  0  0  0  0
 30 33  1  0  0  0  0
 30 65  1  0  0  0  0
 31 32  1  0  0  0  0
 31 66  1  0  0  0  0
 31 67  1  0  0  0  0
 33 34  1  0  0  0  0
 33 68  1  0  0  0  0
 33 69  1  0  0  0  0
 34 70  1  0  0  0  0
M  END
> <rseq>
1

> <mseq>
419

> <S>
-7.71601

> <rmsd_refine>
1.221487

> <E_conf>
25.87517

> <E_score1>
-9.876767

> <E_refine>
-42.48841

> <E_score2>
-7.71601

>  <$File>
outputs/pdb_4j58_cleaned.pdb_2024_06_17__22_47_40_V2_BS398_MIN1_/SDF/sdf_db.sdf

> <Rec_index>
1

>  <PLIF_raw>
[[34,14,14],[1056,820,954],[70,54,62],[3,2,2],[0.5,0.5,1.7]]

> <FP:PLIF>
6 20 23 3

>  <PLIF_ligidx>
[14,14,14,34]

$$$$
419
  MOE2022           3D

 63 66  0  0  1  0  0  0  0  0999 V2000
    6.1050   14.4670   10.0970 C   0  0  0  0  0  0  0  0  0  0  0  0
    5.7850   15.7470    9.6570 C   0  0  0  0  0  0  0  0  0  0  0  0
    4.5530   16.3060    9.9750 C   0  0  0  0  0  0  0  0  0  0  0  0
    3.6190   15.5870   10.7330 C   0  0  0  0  0  0  0  0  0  0  0  0
    3.9480   14.2920   11.1580 C   0  0  0  0  0  0  0  0  0  0  0  0
    5.1850   13.7400   10.8430 C   0  0  0  0  0  0  0  0  0  0  0  0
    2.3070   16.1690   11.0200 C   0  0  0  0  0  0  0  0  0  0  0  0
    1.7880   16.1750   12.3120 N   0  0  0  0  0  0  0  0  0  0  0  0
    1.6330   16.6670   10.1210 O   0  0  0  0  0  0  0  0  0  0  0  0
    2.6470   16.1320   13.5140 C   0  0  0  0  0  0  0  0  0  0  0  0
    0.4150   16.6720   12.5630 C   0  0  0  0  0  0  0  0  0  0  0  0
    1.9500   15.5050   14.7340 C   0  0  0  0  0  0  0  0  0  0  0  0
   -0.2510   16.0330   13.7950 C   0  0  0  0  0  0  0  0  0  0  0  0
    0.6170   16.0800   14.9810 N   0  0  0  0  0  0  0  0  0  0  0  0
    0.1530   16.4860   16.2290 C   0  0  0  0  0  0  0  0  0  0  0  0
   -1.0650   16.5880   16.3840 O   0  0  0  0  0  0  0  0  0  0  0  0
    1.0970   16.8110   17.2960 C   0  0  0  0  0  0  0  0  0  0  0  0
    2.1340   17.7170   17.0440 C   0  0  0  0  0  0  0  0  0  0  0  0
    0.9800   16.2660   18.5940 C   0  0  0  0  0  0  0  0  0  0  0  0
   -0.0880   15.4190   18.8970 N   0  0  0  0  0  0  0  0  0  0  0  0
    1.9220   16.5680   19.5940 C   0  0  0  0  0  0  0  0  0  0  0  0
    2.9610   17.4440   19.3040 C   0  0  0  0  0  0  0  0  0  0  0  0
    3.0540   18.0370   18.0360 C   0  0  0  0  0  0  0  0  0  0  0  0
    4.0710   18.9700   17.6580 N   0  0  0  0  0  0  0  0  0  0  0  0
    5.0110   19.6370   18.4180 C   0  0  0  0  0  0  0  0  0  0  0  0
    5.0430   19.5420   19.6310 O   0  0  0  0  0  0  0  0  0  0  0  0
    5.9580   20.5100   17.6030 C   0  0  2  0  0  0  0  0  0  0  0  0
    7.3690   20.8120   18.1930 C   0  0  2  0  0  0  0  0  0  0  0  0
    1.8180   15.9660   20.9840 C   0  0  0  0  0  0  0  0  0  0  0  0
    5.2770   21.7220   17.0820 N   0  0  0  0  0  0  0  0  0  0  0  0
    5.9560   22.6600   16.5670 C   0  0  0  0  0  0  0  0  0  0  0  0
    7.3590   21.4550   19.5920 C   0  0  0  0  0  0  0  0  0  0  0  0
    8.1030   21.7330   17.2410 C   0  0  0  0  0  0  0  0  0  0  0  0
    7.4090   22.6210   16.5060 C   0  0  0  0  0  0  0  0  0  0  0  0
    7.0460   14.0420    9.8600 H   0  0  0  0  0  0  0  0  0  0  0  0
    6.4790   16.2890    9.0700 H   0  0  0  0  0  0  0  0  0  0  0  0
    4.3150   17.2810    9.6320 H   0  0  0  0  0  0  0  0  0  0  0  0
    3.2480   13.7250   11.7170 H   0  0  0  0  0  0  0  0  0  0  0  0
    5.4280   12.7610   11.1660 H   0  0  0  0  0  0  0  0  0  0  0  0
    3.5630   15.5930   13.3320 H   0  0  0  0  0  0  0  0  0  0  0  0
    2.9480   17.1400   13.7640 H   0  0  0  0  0  0  0  0  0  0  0  0
    0.4490   17.7440   12.6980 H   0  0  0  0  0  0  0  0  0  0  0  0
   -0.2210   16.5010   11.7060 H   0  0  0  0  0  0  0  0  0  0  0  0
    1.8360   14.4460   14.5490 H   0  0  0  0  0  0  0  0  0  0  0  0
    2.5940   15.5740   15.5980 H   0  0  0  0  0  0  0  0  0  0  0  0
   -1.1970   16.5260   13.9720 H   0  0  0  0  0  0  0  0  0  0  0  0
   -0.4920   15.0030   13.5720 H   0  0  0  0  0  0  0  0  0  0  0  0
    2.2160   18.1680   16.0890 H   0  0  0  0  0  0  0  0  0  0  0  0
   -0.3820   15.4340   19.8830 H   0  0  0  0  0  0  0  0  0  0  0  0
   -0.8720   15.4700   18.2240 H   0  0  0  0  0  0  0  0  0  0  0  0
    3.6740   17.6590   20.0500 H   0  0  0  0  0  0  0  0  0  0  0  0
    4.0880   19.2130   16.6560 H   0  0  0  0  0  0  0  0  0  0  0  0
    6.1550   19.9360   16.7080 H   0  0  0  0  0  0  0  0  0  0  0  0
    7.9130   19.8790   18.2550 H   0  0  0  0  0  0  0  0  0  0  0  0
    0.9740   16.4000   21.5200 H   0  0  0  0  0  0  0  0  0  0  0  0
    1.6790   14.8880   20.9260 H   0  0  0  0  0  0  0  0  0  0  0  0
    2.7240   16.1520   21.5620 H   0  0  0  0  0  0  0  0  0  0  0  0
    5.4570   23.5020   16.1600 H   0  0  0  0  0  0  0  0  0  0  0  0
    7.0710   20.7430   20.3630 H   0  0  0  0  0  0  0  0  0  0  0  0
    8.3590   21.8110   19.8410 H   0  0  0  0  0  0  0  0  0  0  0  0
    6.6820   22.3080   19.6230 H   0  0  0  0  0  0  0  0  0  0  0  0
    9.1610   21.6950   17.2260 H   0  0  0  0  0  0  0  0  0  0  0  0
    7.8980   23.3240   15.8840 H   0  0  0  0  0  0  0  0  0  0  0  0
  1  2  2  0  0  0  0
  1  6  1  0  0  0  0
  1 35  1  0  0  0  0
  2  3  1  0  0  0  0
  2 36  1  0  0  0  0
  3  4  2  0  0  0  0
  3 37  1  0  0  0  0
  4  5  1  0  0  0  0
  4  7  1  0  0  0  0
  5  6  2  0  0  0  0
  5 38  1  0  0  0  0
  6 39  1  0  0  0  0
  7  8  1  0  0  0  0
  7  9  2  0  0  0  0
  8 10  1  0  0  0  0
  8 11  1  0  0  0  0
 10 12  1  0  0  0  0
 10 40  1  0  0  0  0
 10 41  1  0  0  0  0
 11 13  1  0  0  0  0
 11 42  1  0  0  0  0
 11 43  1  0  0  0  0
 12 14  1  0  0  0  0
 12 44  1  0  0  0  0
 12 45  1  0  0  0  0
 13 14  1  0  0  0  0
 13 46  1  0  0  0  0
 13 47  1  0  0  0  0
 14 15  1  0  0  0  0
 15 16  2  0  0  0  0
 15 17  1  0  0  0  0
 17 18  2  0  0  0  0
 17 19  1  0  0  0  0
 18 23  1  0  0  0  0
 18 48  1  0  0  0  0
 19 20  1  0  0  0  0
 19 21  2  0  0  0  0
 20 49  1  0  0  0  0
 20 50  1  0  0  0  0
 21 22  1  0  0  0  0
 21 29  1  0  0  0  0
 22 23  2  0  0  0  0
 22 51  1  0  0  0  0
 23 24  1  0  0  0  0
 24 25  1  0  0  0  0
 24 52  1  0  0  0  0
 25 26  2  0  0  0  0
 25 27  1  0  0  0  0
 27 28  1  0  0  0  0
 27 30  1  0  0  0  0
 27 53  1  0  0  0  0
 28 32  1  0  0  0  0
 28 33  1  0  0  0  0
 28 54  1  0  0  0  0
 29 55  1  0  0  0  0
 29 56  1  0  0  0  0
 29 57  1  0  0  0  0
 30 31  2  0  0  0  0
 31 34  1  0  0  0  0
 31 58  1  0  0  0  0
 32 59  1  0  0  0  0
 32 60  1  0  0  0  0
 32 61  1  0  0  0  0
 33 34  2  0  0  0  0
 33 62  1  0  0  0  0
 34 63  1  0  0  0  0
M  END
> <rseq>
1

> <mseq>
420

> <S>
-7.578362

> <rmsd_refine>
1.159083

> <E_conf>
63.61318

> <E_score1>
-10.78694

> <E_refine>
-42.41934

> <E_score2>
-7.578362

>  <$File>
outputs/pdb_4j58_cleaned.pdb_2024_06_17__22_47_40_V2_BS398_MIN1_/SDF/sdf_db.sdf

> <Rec_index>
1

>  <PLIF_raw>
[[26,1,6,5,4,3,2],[1499,820,820,820,820,820,820],[101,54,54,54,54,54,54],[4,10,10,10,10,10,10],[1.4,0.6,0.6,0.6,0.6,0.6,0.6]]

> <FP:PLIF>
2 11

>  <PLIF_ligidx>
[[1,6,5,4,3,2],26]

$$$$
420
  MOE2022           3D

 56 58  0  0  1  0  0  0  0  0999 V2000
    5.0710   14.9180    9.9850 C   0  0  0  0  0  0  0  0  0  0  0  0
    4.2980   14.9140   11.1400 C   0  0  0  0  0  0  0  0  0  0  0  0
    3.6410   16.0870   11.5460 C   0  0  0  0  0  0  0  0  0  0  0  0
    5.7430   13.7840    9.6170 O   0  0  0  0  0  0  0  0  0  0  0  0
    3.7400   17.2380   10.7430 C   0  0  0  0  0  0  0  0  0  0  0  0
    2.8920   16.1110   12.8000 C   0  0  0  0  0  0  0  0  0  0  0  0
    2.8770   17.2860   13.5150 N   0  0  0  0  0  0  0  0  0  0  0  0
    2.3000   15.1330   13.2500 O   0  0  0  0  0  0  0  0  0  0  0  0
    5.1720   16.0720    9.2050 C   0  0  0  0  0  0  0  0  0  0  0  0
    2.0950   17.5010   14.7490 C   0  0  1  0  0  0  0  0  0  0  0  0
    2.7810   16.9820   16.0050 C   0  0  0  0  0  0  0  0  0  0  0  0
    1.5870   18.9320   14.8620 C   0  0  0  0  0  0  0  0  0  0  0  0
    3.6360   16.0960   15.9450 O   0  0  0  0  0  0  0  0  0  0  0  0
    1.3750   19.5930   13.8440 O   0  0  0  0  0  0  0  0  0  0  0  0
    1.2700   19.4030   16.0820 N   0  0  0  0  0  0  0  0  0  0  0  0
    5.9340   16.0700    8.0710 O   0  0  0  0  0  0  0  0  0  0  0  0
    2.3460   17.4540   17.1870 N   0  0  0  0  0  0  0  0  0  0  0  0
    0.4060   20.5830   16.2740 C   0  0  0  0  0  0  0  0  0  0  0  0
    4.4980   17.2310    9.5760 C   0  0  0  0  0  0  0  0  0  0  0  0
    1.8090   18.8090   17.3060 C   0  0  1  0  0  0  0  0  0  0  0  0
    1.1590   21.8850   16.5640 C   0  0  0  0  0  0  0  0  0  0  0  0
    2.7950   19.6630   17.9350 O   0  0  0  0  0  0  0  0  0  0  0  0
    2.6800   16.7770   18.4560 C   0  0  0  0  0  0  0  0  0  0  0  0
    1.4850   16.5110   19.3840 C   0  0  0  0  0  0  0  0  0  0  0  0
    4.0690   20.0340   17.5670 C   0  0  0  0  0  0  0  0  0  0  0  0
    0.5140   15.6890   18.7680 O   0  0  0  0  0  0  0  0  0  0  0  0
    1.1850   22.2720   17.7540 O   0  5  0  0  0  0  0  0  0  0  0  0
    5.0840   19.8790   18.5110 C   0  0  0  0  0  0  0  0  0  0  0  0
    6.3770   20.3050   18.2150 C   0  0  0  0  0  0  0  0  0  0  0  0
    4.3340   20.6040   16.3230 C   0  0  0  0  0  0  0  0  0  0  0  0
    5.6190   21.0500   16.0410 C   0  0  0  0  0  0  0  0  0  0  0  0
    6.6380   20.8960   16.9790 C   0  0  0  0  0  0  0  0  0  0  0  0
    7.4980   20.1460   19.2190 C   0  0  0  0  0  0  0  0  0  0  0  0
    1.6760   22.4820   15.5940 O   0  0  0  0  0  0  0  0  0  0  0  0
    4.2220   14.0310   11.7210 H   0  0  0  0  0  0  0  0  0  0  0  0
    6.2250   13.9550    8.7840 H   0  0  0  0  0  0  0  0  0  0  0  0
    3.2300   18.1240   11.0220 H   0  0  0  0  0  0  0  0  0  0  0  0
    3.3910   18.1000   13.1460 H   0  0  0  0  0  0  0  0  0  0  0  0
    1.1930   16.9090   14.6690 H   0  0  0  0  0  0  0  0  0  0  0  0
    5.9100   16.9430    7.6340 H   0  0  0  0  0  0  0  0  0  0  0  0
   -0.2110   20.7380   15.3890 H   0  0  0  0  0  0  0  0  0  0  0  0
   -0.2740   20.3910   17.1050 H   0  0  0  0  0  0  0  0  0  0  0  0
    4.5620   18.1040    8.9780 H   0  0  0  0  0  0  0  0  0  0  0  0
    0.9840   18.7590   18.0050 H   0  0  0  0  0  0  0  0  0  0  0  0
    3.1470   15.8250   18.2570 H   0  0  0  0  0  0  0  0  0  0  0  0
    3.4180   17.3560   18.9940 H   0  0  0  0  0  0  0  0  0  0  0  0
    1.8420   16.0100   20.2840 H   0  0  0  0  0  0  0  0  0  0  0  0
    1.0190   17.4500   19.6840 H   0  0  0  0  0  0  0  0  0  0  0  0
    0.9640   15.0270   18.2340 H   0  0  0  0  0  0  0  0  0  0  0  0
    4.8630   19.4430   19.4510 H   0  0  0  0  0  0  0  0  0  0  0  0
    3.5660   20.7240   15.6060 H   0  0  0  0  0  0  0  0  0  0  0  0
    5.8210   21.5120   15.1100 H   0  0  0  0  0  0  0  0  0  0  0  0
    7.6170   21.2330   16.7500 H   0  0  0  0  0  0  0  0  0  0  0  0
    7.8910   21.1220   19.5050 H   0  0  0  0  0  0  0  0  0  0  0  0
    7.1540   19.6420   20.1210 H   0  0  0  0  0  0  0  0  0  0  0  0
    8.3120   19.5620   18.7900 H   0  0  0  0  0  0  0  0  0  0  0  0
  1  2  1  0  0  0  0
  1  4  1  0  0  0  0
  1  9  2  0  0  0  0
  2  3  2  0  0  0  0
  2 35  1  0  0  0  0
  3  5  1  0  0  0  0
  3  6  1  0  0  0  0
  4 36  1  0  0  0  0
  5 19  2  0  0  0  0
  5 37  1  0  0  0  0
  6  7  1  0  0  0  0
  6  8  2  0  0  0  0
  7 10  1  0  0  0  0
  7 38  1  0  0  0  0
  9 16  1  0  0  0  0
  9 19  1  0  0  0  0
 10 11  1  0  0  0  0
 10 12  1  0  0  0  0
 10 39  1  0  0  0  0
 11 13  2  0  0  0  0
 11 17  1  0  0  0  0
 12 14  2  0  0  0  0
 12 15  1  0  0  0  0
 15 18  1  0  0  0  0
 15 20  1  0  0  0  0
 16 40  1  0  0  0  0
 17 20  1  0  0  0  0
 17 23  1  0  0  0  0
 18 21  1  0  0  0  0
 18 41  1  0  0  0  0
 18 42  1  0  0  0  0
 19 43  1  0  0  0  0
 20 22  1  0  0  0  0
 20 44  1  0  0  0  0
 21 27  1  0  0  0  0
 21 34  2  0  0  0  0
 22 25  1  0  0  0  0
 23 24  1  0  0  0  0
 23 45  1  0  0  0  0
 23 46  1  0  0  0  0
 24 26  1  0  0  0  0
 24 47  1  0  0  0  0
 24 48  1  0  0  0  0
 25 28  1  0  0  0  0
 25 30  2  0  0  0  0
 26 49  1  0  0  0  0
 28 29  2  0  0  0  0
 28 50  1  0  0  0  0
 29 32  1  0  0  0  0
 29 33  1  0  0  0  0
 30 31  1  0  0  0  0
 30 51  1  0  0  0  0
 31 32  2  0  0  0  0
 31 52  1  0  0  0  0
 32 53  1  0  0  0  0
 33 54  1  0  0  0  0
 33 55  1  0  0  0  0
 33 56  1  0  0  0  0
M  CHG  1  27  -1
M  END
> <rseq>
1

> <mseq>
421

> <S>
-6.670902

> <rmsd_refine>
1.128869

> <E_conf>
-118.9332

> <E_score1>
-11.24457

> <E_refine>
-37.79889

> <E_score2>
-6.670902

>  <$File>
outputs/pdb_4j58_cleaned.pdb_2024_06_17__22_47_40_V2_BS398_MIN1_/SDF/sdf_db.sdf

> <Rec_index>
1

>  <PLIF_raw>
[[26,13],[1071,954],[71,62],[3,2],[2.1,1.2]]

> <FP:PLIF>
20 7 14

>  <PLIF_ligidx>
[13,26,26]

$$$$
421
  MOE2022           3D

 56 58  0  0  1  0  0  0  0  0999 V2000
    3.7770   18.1400   19.1240 O   0  0  0  0  0  0  0  0  0  0  0  0
    2.8700   17.7230   18.3920 C   0  0  0  0  0  0  0  0  0  0  0  0
    1.8000   16.8730   18.8390 C   0  0  0  0  0  0  0  0  0  0  0  0
    2.8800   18.0800   17.0370 N   0  0  0  0  0  0  0  0  0  0  0  0
    0.8500   16.4720   17.9480 C   0  0  0  0  0  0  0  0  0  0  0  0
    1.8920   17.5800   16.1680 C   0  0  0  0  0  0  0  0  0  0  0  0
    0.9270   16.8360   16.6230 N   0  0  0  0  0  0  0  0  0  0  0  0
    1.9820   17.9000   14.7510 C   0  0  0  0  0  0  0  0  0  0  0  0
    3.9230   19.0190   16.5280 C   0  0  0  0  0  0  0  0  0  0  0  0
    1.7500   16.4390   20.2970 C   0  0  0  0  0  0  0  0  0  0  0  0
   -0.3300   15.6030   18.3360 C   0  0  0  0  0  0  0  0  0  0  0  0
    3.4920   20.5020   16.4660 C   0  0  1  0  0  0  0  0  0  0  0  0
    3.4340   21.1750   17.8500 C   0  0  0  0  0  0  0  0  0  0  0  0
    1.1650   18.8900   14.1870 C   0  0  0  0  0  0  0  0  0  0  0  0
    4.4680   21.3800   15.6940 C   0  0  0  0  0  0  0  0  0  0  0  0
    1.2630   19.2010   12.8360 C   0  0  0  0  0  0  0  0  0  0  0  0
    2.1840   18.5210   12.0410 C   0  0  0  0  0  0  0  0  0  0  0  0
    4.9380   21.0970   14.5940 O   0  0  0  0  0  0  0  0  0  0  0  0
    2.8800   17.2040   13.9270 C   0  0  0  0  0  0  0  0  0  0  0  0
    3.9270   22.6070   17.5840 C   0  0  1  0  0  0  0  0  0  0  0  0
    2.9880   17.5130   12.5780 C   0  0  0  0  0  0  0  0  0  0  0  0
    4.6940   23.2170   18.7710 C   0  0  0  0  0  0  0  0  0  0  0  0
    4.1900   24.2170   19.3280 O   0  0  0  0  0  0  0  0  0  0  0  0
    4.7340   22.4820   16.3810 N   0  0  0  0  0  0  0  0  0  0  0  0
    5.7710   22.6800   19.1180 O   0  5  0  0  0  0  0  0  0  0  0  0
    2.2780   18.8600   10.7150 O   0  0  0  0  0  0  0  0  0  0  0  0
    3.5520   19.2460   10.1300 C   0  0  0  0  0  0  0  0  0  0  0  0
    4.0040   18.3380    9.0050 C   0  0  0  0  0  0  0  0  0  0  0  0
    3.9480   18.6900    7.8280 O   0  0  0  0  0  0  0  0  0  0  0  0
    4.4980   17.1520    9.3770 N   0  0  0  0  0  0  0  0  0  0  0  0
    5.1120   16.1770    8.4770 C   0  0  0  0  0  0  0  0  0  0  0  0
    5.9410   15.1450    9.2480 C   0  0  0  0  0  0  0  0  0  0  0  0
    6.5430   15.5430   10.2710 O   0  0  0  0  0  0  0  0  0  0  0  0
    5.9660   13.9780    8.8000 O   0  5  0  0  0  0  0  0  0  0  0  0
    4.8290   18.9470   17.1140 H   0  0  0  0  0  0  0  0  0  0  0  0
    4.2520   18.7120   15.5470 H   0  0  0  0  0  0  0  0  0  0  0  0
    0.9040   16.8820   20.8040 H   0  0  0  0  0  0  0  0  0  0  0  0
    1.6620   15.3660   20.3800 H   0  0  0  0  0  0  0  0  0  0  0  0
    2.6390   16.7160   20.8450 H   0  0  0  0  0  0  0  0  0  0  0  0
   -0.9460   16.0890   19.0790 H   0  0  0  0  0  0  0  0  0  0  0  0
   -0.9630   15.3830   17.4870 H   0  0  0  0  0  0  0  0  0  0  0  0
   -0.0080   14.6570   18.7470 H   0  0  0  0  0  0  0  0  0  0  0  0
    2.5160   20.5760   15.9870 H   0  0  0  0  0  0  0  0  0  0  0  0
    2.4190   21.1770   18.2470 H   0  0  0  0  0  0  0  0  0  0  0  0
    4.1180   20.6790   18.5390 H   0  0  0  0  0  0  0  0  0  0  0  0
    0.4690   19.4060   14.7970 H   0  0  0  0  0  0  0  0  0  0  0  0
    0.6470   19.9520   12.4130 H   0  0  0  0  0  0  0  0  0  0  0  0
    3.4780   16.4330   14.3400 H   0  0  0  0  0  0  0  0  0  0  0  0
    3.0680   23.2390   17.3550 H   0  0  0  0  0  0  0  0  0  0  0  0
    3.6650   16.9810   11.9660 H   0  0  0  0  0  0  0  0  0  0  0  0
    5.3730   23.2020   16.0800 H   0  0  0  0  0  0  0  0  0  0  0  0
    3.4600   20.2600    9.7670 H   0  0  0  0  0  0  0  0  0  0  0  0
    4.2990   19.2660   10.9100 H   0  0  0  0  0  0  0  0  0  0  0  0
    4.5160   16.9170   10.3570 H   0  0  0  0  0  0  0  0  0  0  0  0
    4.3300   15.6620    7.9180 H   0  0  0  0  0  0  0  0  0  0  0  0
    5.7690   16.6880    7.7740 H   0  0  0  0  0  0  0  0  0  0  0  0
  1  2  2  0  0  0  0
  2  3  1  0  0  0  0
  2  4  1  0  0  0  0
  3  5  2  0  0  0  0
  3 10  1  0  0  0  0
  4  6  1  0  0  0  0
  4  9  1  0  0  0  0
  5  7  1  0  0  0  0
  5 11  1  0  0  0  0
  6  7  2  0  0  0  0
  6  8  1  0  0  0  0
  8 14  1  0  0  0  0
  8 19  2  0  0  0  0
  9 12  1  0  0  0  0
  9 35  1  0  0  0  0
  9 36  1  0  0  0  0
 10 37  1  0  0  0  0
 10 38  1  0  0  0  0
 10 39  1  0  0  0  0
 11 40  1  0  0  0  0
 11 41  1  0  0  0  0
 11 42  1  0  0  0  0
 12 13  1  0  0  0  0
 12 15  1  0  0  0  0
 12 43  1  0  0  0  0
 13 20  1  0  0  0  0
 13 44  1  0  0  0  0
 13 45  1  0  0  0  0
 14 16  2  0  0  0  0
 14 46  1  0  0  0  0
 15 18  2  0  0  0  0
 15 24  1  0  0  0  0
 16 17  1  0  0  0  0
 16 47  1  0  0  0  0
 17 21  2  0  0  0  0
 17 26  1  0  0  0  0
 19 21  1  0  0  0  0
 19 48  1  0  0  0  0
 20 22  1  0  0  0  0
 20 24  1  0  0  0  0
 20 49  1  0  0  0  0
 21 50  1  0  0  0  0
 22 23  2  0  0  0  0
 22 25  1  0  0  0  0
 24 51  1  0  0  0  0
 26 27  1  0  0  0  0
 27 28  1  0  0  0  0
 27 52  1  0  0  0  0
 27 53  1  0  0  0  0
 28 29  2  0  0  0  0
 28 30  1  0  0  0  0
 30 31  1  0  0  0  0
 30 54  1  0  0  0  0
 31 32  1  0  0  0  0
 31 55  1  0  0  0  0
 31 56  1  0  0  0  0
 32 33  2  0  0  0  0
 32 34  1  0  0  0  0
M  CHG  1  25  -1
M  CHG  1  34  -1
M  END
> <rseq>
1

> <mseq>
422

> <S>
-6.357225

> <rmsd_refine>
1.41152

> <E_conf>
-117.5245

> <E_score1>
-11.2301

> <E_refine>
-36.9235

> <E_score2>
-6.357225

>  <$File>
outputs/pdb_4j58_cleaned.pdb_2024_06_17__22_47_40_V2_BS398_MIN1_/SDF/sdf_db.sdf

> <Rec_index>
1

>  <PLIF_raw>
[[23,33,23,25,33,2,4,6,7,5,3],[1872,823,1872,1872,823,954,954,954,954,954,954],[125,54,125,125,54,62,62,62,62,62,62],[2,2,7,7,7,10,10,10,10,10,10],[7.4,5.9,4.440448925,3.449921546,4.655684061,0.8,0.8,0.8,0.8,0.8,0.8]]

> <FP:PLIF>
6 19 1 16 21 29 46 13 31

>  <PLIF_ligidx>
[33,33,33,33,[2,4,6,7,5,3],23,23,[23,25],23]

$$$$
422
  MOE2022           3D

 58 61  0  0  1  0  0  0  0  0999 V2000
    3.3410   17.3040   19.5410 O   0  0  0  0  0  0  0  0  0  0  0  0
    2.3040   16.9480   18.9730 C   0  0  0  0  0  0  0  0  0  0  0  0
    1.1860   16.3350   19.6390 C   0  0  0  0  0  0  0  0  0  0  0  0
    2.1920   17.1290   17.5920 N   0  0  0  0  0  0  0  0  0  0  0  0
    0.1260   15.9020   18.8990 C   0  0  0  0  0  0  0  0  0  0  0  0
    1.1920   16.4310   16.8880 C   0  0  0  0  0  0  0  0  0  0  0  0
    0.1710   15.9340   17.5250 N   0  0  0  0  0  0  0  0  0  0  0  0
    1.3670   16.1960   15.4590 C   0  0  0  0  0  0  0  0  0  0  0  0
    3.1040   18.0630   16.8550 C   0  0  0  0  0  0  0  0  0  0  0  0
    1.2260   16.1680   21.1480 C   0  0  0  0  0  0  0  0  0  0  0  0
   -1.1200   15.2780   19.4950 C   0  0  0  0  0  0  0  0  0  0  0  0
    3.2210   19.5060   17.4030 C   0  0  1  0  0  0  0  0  0  0  0  0
    4.5160   19.7780   18.2020 C   0  0  0  0  0  0  0  0  0  0  0  0
    0.3330   16.4440   14.5430 C   0  0  0  0  0  0  0  0  0  0  0  0
    3.3070   20.5710   16.3120 C   0  0  0  0  0  0  0  0  0  0  0  0
    0.5030   16.1590   13.1930 C   0  0  0  0  0  0  0  0  0  0  0  0
    1.7130   15.6250   12.7510 C   0  0  0  0  0  0  0  0  0  0  0  0
    2.7080   20.5290   15.2400 O   0  0  0  0  0  0  0  0  0  0  0  0
    2.5720   15.6480   14.9910 C   0  0  0  0  0  0  0  0  0  0  0  0
    4.6850   21.2900   18.0120 C   0  0  1  0  0  0  0  0  0  0  0  0
    2.7470   15.3590   13.6480 C   0  0  0  0  0  0  0  0  0  0  0  0
    6.1290   21.7720   18.2240 C   0  0  0  0  0  0  0  0  0  0  0  0
    6.3560   22.4090   19.2770 O   0  0  0  0  0  0  0  0  0  0  0  0
    6.9750   21.4950   17.3430 O   0  5  0  0  0  0  0  0  0  0  0  0
    4.1740   21.5090   16.6700 N   0  0  0  0  0  0  0  0  0  0  0  0
    1.8590   15.3680   11.4040 O   0  0  0  0  0  0  0  0  0  0  0  0
    3.0870   15.4620   10.7730 C   0  0  0  0  0  0  0  0  0  0  0  0
    3.4440   16.6540   10.1390 C   0  0  0  0  0  0  0  0  0  0  0  0
    2.5910   17.7260   10.1440 O   0  0  0  0  0  0  0  0  0  0  0  0
    3.9560   14.3720   10.7660 C   0  0  0  0  0  0  0  0  0  0  0  0
    4.6710   16.7630    9.4950 C   0  0  0  0  0  0  0  0  0  0  0  0
    5.2000   14.4860   10.1400 C   0  0  0  0  0  0  0  0  0  0  0  0
    6.1600   13.3160   10.1320 C   0  0  0  0  0  0  0  0  0  0  0  0
    5.5480   15.6800    9.5020 C   0  0  0  0  0  0  0  0  0  0  0  0
    4.0850   17.6300   16.7450 H   0  0  0  0  0  0  0  0  0  0  0  0
    2.7680   18.1560   15.8340 H   0  0  0  0  0  0  0  0  0  0  0  0
    0.4870   16.7920   21.6300 H   0  0  0  0  0  0  0  0  0  0  0  0
    1.0310   15.1430   21.4210 H   0  0  0  0  0  0  0  0  0  0  0  0
    2.1910   16.4080   21.5680 H   0  0  0  0  0  0  0  0  0  0  0  0
   -1.3470   15.6570   20.4810 H   0  0  0  0  0  0  0  0  0  0  0  0
   -1.9880   15.4770   18.8800 H   0  0  0  0  0  0  0  0  0  0  0  0
   -1.0180   14.2050   19.5640 H   0  0  0  0  0  0  0  0  0  0  0  0
    2.3460   19.7280   18.0130 H   0  0  0  0  0  0  0  0  0  0  0  0
    4.4360   19.5240   19.2570 H   0  0  0  0  0  0  0  0  0  0  0  0
    5.3590   19.2590   17.7450 H   0  0  0  0  0  0  0  0  0  0  0  0
   -0.5860   16.8470   14.8850 H   0  0  0  0  0  0  0  0  0  0  0  0
   -0.2780   16.3490   12.5030 H   0  0  0  0  0  0  0  0  0  0  0  0
    3.3550   15.4400   15.6740 H   0  0  0  0  0  0  0  0  0  0  0  0
    4.0340   21.8090   18.7160 H   0  0  0  0  0  0  0  0  0  0  0  0
    3.6530   14.9280   13.3200 H   0  0  0  0  0  0  0  0  0  0  0  0
    4.4410   22.2970   16.0990 H   0  0  0  0  0  0  0  0  0  0  0  0
    2.9670   18.4740    9.6410 H   0  0  0  0  0  0  0  0  0  0  0  0
    3.6740   13.4670   11.2400 H   0  0  0  0  0  0  0  0  0  0  0  0
    4.9350   17.6600    8.9980 H   0  0  0  0  0  0  0  0  0  0  0  0
    5.9810   12.6580   10.9830 H   0  0  0  0  0  0  0  0  0  0  0  0
    6.0400   12.7360    9.2170 H   0  0  0  0  0  0  0  0  0  0  0  0
    7.1910   13.6620   10.1870 H   0  0  0  0  0  0  0  0  0  0  0  0
    6.4830   15.7640    9.0120 H   0  0  0  0  0  0  0  0  0  0  0  0
  1  2  2  0  0  0  0
  2  3  1  0  0  0  0
  2  4  1  0  0  0  0
  3  5  2  0  0  0  0
  3 10  1  0  0  0  0
  4  6  1  0  0  0  0
  4  9  1  0  0  0  0
  5  7  1  0  0  0  0
  5 11  1  0  0  0  0
  6  7  2  0  0  0  0
  6  8  1  0  0  0  0
  8 14  1  0  0  0  0
  8 19  2  0  0  0  0
  9 12  1  0  0  0  0
  9 35  1  0  0  0  0
  9 36  1  0  0  0  0
 10 37  1  0  0  0  0
 10 38  1  0  0  0  0
 10 39  1  0  0  0  0
 11 40  1  0  0  0  0
 11 41  1  0  0  0  0
 11 42  1  0  0  0  0
 12 13  1  0  0  0  0
 12 15  1  0  0  0  0
 12 43  1  0  0  0  0
 13 20  1  0  0  0  0
 13 44  1  0  0  0  0
 13 45  1  0  0  0  0
 14 16  2  0  0  0  0
 14 46  1  0  0  0  0
 15 18  2  0  0  0  0
 15 25  1  0  0  0  0
 16 17  1  0  0  0  0
 16 47  1  0  0  0  0
 17 21  2  0  0  0  0
 17 26  1  0  0  0  0
 19 21  1  0  0  0  0
 19 48  1  0  0  0  0
 20 22  1  0  0  0  0
 20 25  1  0  0  0  0
 20 49  1  0  0  0  0
 21 50  1  0  0  0  0
 22 23  2  0  0  0  0
 22 24  1  0  0  0  0
 25 51  1  0  0  0  0
 26 27  1  0  0  0  0
 27 28  2  0  0  0  0
 27 30  1  0  0  0  0
 28 29  1  0  0  0  0
 28 31  1  0  0  0  0
 29 52  1  0  0  0  0
 30 32  2  0  0  0  0
 30 53  1  0  0  0  0
 31 34  2  0  0  0  0
 31 54  1  0  0  0  0
 32 33  1  0  0  0  0
 32 34  1  0  0  0  0
 33 55  1  0  0  0  0
 33 56  1  0  0  0  0
 33 57  1  0  0  0  0
 34 58  1  0  0  0  0
M  CHG  1  24  -1
M  END
> <rseq>
1

> <mseq>
423

> <S>
-6.870081

> <rmsd_refine>
1.366679

> <E_conf>
-57.8572

> <E_score1>
-10.35206

> <E_refine>
-37.32217

> <E_score2>
-6.870081

>  <$File>
outputs/pdb_4j58_cleaned.pdb_2024_06_17__22_47_40_V2_BS398_MIN1_/SDF/sdf_db.sdf

> <Rec_index>
1

>  <PLIF_raw>
[[23,2,4,6,7,5,3,2,4,6,7,5,3],[1872,954,954,954,954,954,954,1519,1519,1519,1519,1519,1519],[125,62,62,62,62,62,62,102,102,102,102,102,102],[7,10,10,10,10,10,10,10,10,10,10,10,10],[3.030615596,1.4,1.4,1.4,1.4,1.4,1.4,0.5,0.5,0.5,0.5,0.5,0.5]]

> <FP:PLIF>
21 30 22 13

>  <PLIF_ligidx>
[[2,4,6,7,5,3],[2,4,6,7,5,3],[2,4,6,7,5,3],23]

$$$$
423
  MOE2022           3D

 67 69  0  0  1  0  0  0  0  0999 V2000
    6.1470   14.4220   10.1030 C   0  0  0  0  0  0  0  0  0  0  0  0
    5.8230   15.7010    9.6650 C   0  0  0  0  0  0  0  0  0  0  0  0
    4.5750   16.2420    9.9540 C   0  0  0  0  0  0  0  0  0  0  0  0
    3.6310   15.5040   10.6800 C   0  0  0  0  0  0  0  0  0  0  0  0
    3.9640   14.2090   11.1010 C   0  0  0  0  0  0  0  0  0  0  0  0
    5.2160   13.6760   10.8160 C   0  0  0  0  0  0  0  0  0  0  0  0
    2.3080   16.0680   10.9440 C   0  0  0  0  0  0  0  0  0  0  0  0
    1.7790   16.0880   12.2310 N   0  0  0  0  0  0  0  0  0  0  0  0
    1.6350   16.5420   10.0300 O   0  0  0  0  0  0  0  0  0  0  0  0
    2.6290   16.0460   13.4400 C   0  0  0  0  0  0  0  0  0  0  0  0
    0.4060   16.5920   12.4670 C   0  0  0  0  0  0  0  0  0  0  0  0
    1.9190   15.4350   14.6590 C   0  0  0  0  0  0  0  0  0  0  0  0
   -0.2710   15.9700   13.7000 C   0  0  0  0  0  0  0  0  0  0  0  0
    0.5900   16.0250   14.8910 N   0  0  0  0  0  0  0  0  0  0  0  0
    0.1260   16.4630   16.1290 C   0  0  0  0  0  0  0  0  0  0  0  0
   -1.0900   16.5950   16.2720 O   0  0  0  0  0  0  0  0  0  0  0  0
    1.0680   16.7840   17.1980 C   0  0  0  0  0  0  0  0  0  0  0  0
    2.1180   17.6750   16.9480 C   0  0  0  0  0  0  0  0  0  0  0  0
    0.9310   16.2520   18.5000 C   0  0  0  0  0  0  0  0  0  0  0  0
   -0.1480   15.4190   18.8000 N   0  0  0  0  0  0  0  0  0  0  0  0
    1.8660   16.5530   19.5060 C   0  0  0  0  0  0  0  0  0  0  0  0
    2.9170   17.4150   19.2190 C   0  0  0  0  0  0  0  0  0  0  0  0
    3.0280   17.9990   17.9480 C   0  0  0  0  0  0  0  0  0  0  0  0
    4.0450   18.9410   17.5820 N   0  0  0  0  0  0  0  0  0  0  0  0
    4.9130   19.6630   18.3800 C   0  0  0  0  0  0  0  0  0  0  0  0
    4.9360   19.5170   19.5860 O   0  0  0  0  0  0  0  0  0  0  0  0
    5.7950   20.6800   17.6480 C   0  0  2  0  0  0  0  0  0  0  0  0
    7.2950   20.5640   18.0390 C   0  0  0  0  0  0  0  0  0  0  0  0
    1.7440   15.9670   20.9020 C   0  0  0  0  0  0  0  0  0  0  0  0
    5.2920   22.0920   17.7450 N   0  0  0  0  0  0  0  0  0  0  0  0
    3.8300   22.1800   17.5910 C   0  0  0  0  0  0  0  0  0  0  0  0
    7.7460   21.3820   19.2610 C   0  0  0  0  0  0  0  0  0  0  0  0
    5.9230   22.9500   16.7300 C   0  0  0  0  0  0  0  0  0  0  0  0
    7.1060   20.9400   20.4350 O   0  0  0  0  0  0  0  0  0  0  0  0
    7.0990   14.0110    9.8890 H   0  0  0  0  0  0  0  0  0  0  0  0
    6.5260   16.2590    9.1040 H   0  0  0  0  0  0  0  0  0  0  0  0
    4.3340   17.2170    9.6140 H   0  0  0  0  0  0  0  0  0  0  0  0
    3.2560   13.6290   11.6360 H   0  0  0  0  0  0  0  0  0  0  0  0
    5.4630   12.6970   11.1370 H   0  0  0  0  0  0  0  0  0  0  0  0
    3.5420   15.4980   13.2700 H   0  0  0  0  0  0  0  0  0  0  0  0
    2.9380   17.0540   13.6840 H   0  0  0  0  0  0  0  0  0  0  0  0
    0.4430   17.6660   12.5910 H   0  0  0  0  0  0  0  0  0  0  0  0
   -0.2250   16.4160   11.6070 H   0  0  0  0  0  0  0  0  0  0  0  0
    1.7970   14.3750   14.4840 H   0  0  0  0  0  0  0  0  0  0  0  0
    2.5570   15.5070   15.5270 H   0  0  0  0  0  0  0  0  0  0  0  0
   -1.2160   16.4680   13.8660 H   0  0  0  0  0  0  0  0  0  0  0  0
   -0.5150   14.9390   13.4860 H   0  0  0  0  0  0  0  0  0  0  0  0
    2.2140   18.1150   15.9890 H   0  0  0  0  0  0  0  0  0  0  0  0
   -0.4470   15.4360   19.7840 H   0  0  0  0  0  0  0  0  0  0  0  0
   -0.9270   15.4730   18.1220 H   0  0  0  0  0  0  0  0  0  0  0  0
    3.6250   17.6240   19.9740 H   0  0  0  0  0  0  0  0  0  0  0  0
    4.0880   19.1730   16.5790 H   0  0  0  0  0  0  0  0  0  0  0  0
    5.7400   20.4120   16.6010 H   0  0  0  0  0  0  0  0  0  0  0  0
    7.5440   19.5170   18.2080 H   0  0  0  0  0  0  0  0  0  0  0  0
    7.8930   20.8950   17.1900 H   0  0  0  0  0  0  0  0  0  0  0  0
    0.8950   16.4100   21.4230 H   0  0  0  0  0  0  0  0  0  0  0  0
    1.6030   14.8890   20.8540 H   0  0  0  0  0  0  0  0  0  0  0  0
    2.6430   16.1570   21.4900 H   0  0  0  0  0  0  0  0  0  0  0  0
    3.3180   21.6930   18.4100 H   0  0  0  0  0  0  0  0  0  0  0  0
    3.5060   23.2120   17.5940 H   0  0  0  0  0  0  0  0  0  0  0  0
    3.5020   21.7290   16.6630 H   0  0  0  0  0  0  0  0  0  0  0  0
    8.8240   21.2730   19.3840 H   0  0  0  0  0  0  0  0  0  0  0  0
    7.5250   22.4380   19.1070 H   0  0  0  0  0  0  0  0  0  0  0  0
    6.9960   22.9940   16.8570 H   0  0  0  0  0  0  0  0  0  0  0  0
    5.7130   22.5970   15.7290 H   0  0  0  0  0  0  0  0  0  0  0  0
    5.5570   23.9660   16.8080 H   0  0  0  0  0  0  0  0  0  0  0  0
    6.2080   20.6790   20.2050 H   0  0  0  0  0  0  0  0  0  0  0  0
  1  2  2  0  0  0  0
  1  6  1  0  0  0  0
  1 35  1  0  0  0  0
  2  3  1  0  0  0  0
  2 36  1  0  0  0  0
  3  4  2  0  0  0  0
  3 37  1  0  0  0  0
  4  5  1  0  0  0  0
  4  7  1  0  0  0  0
  5  6  2  0  0  0  0
  5 38  1  0  0  0  0
  6 39  1  0  0  0  0
  7  8  1  0  0  0  0
  7  9  2  0  0  0  0
  8 10  1  0  0  0  0
  8 11  1  0  0  0  0
 10 12  1  0  0  0  0
 10 40  1  0  0  0  0
 10 41  1  0  0  0  0
 11 13  1  0  0  0  0
 11 42  1  0  0  0  0
 11 43  1  0  0  0  0
 12 14  1  0  0  0  0
 12 44  1  0  0  0  0
 12 45  1  0  0  0  0
 13 14  1  0  0  0  0
 13 46  1  0  0  0  0
 13 47  1  0  0  0  0
 14 15  1  0  0  0  0
 15 16  2  0  0  0  0
 15 17  1  0  0  0  0
 17 18  2  0  0  0  0
 17 19  1  0  0  0  0
 18 23  1  0  0  0  0
 18 48  1  0  0  0  0
 19 20  1  0  0  0  0
 19 21  2  0  0  0  0
 20 49  1  0  0  0  0
 20 50  1  0  0  0  0
 21 22  1  0  0  0  0
 21 29  1  0  0  0  0
 22 23  2  0  0  0  0
 22 51  1  0  0  0  0
 23 24  1  0  0  0  0
 24 25  1  0  0  0  0
 24 52  1  0  0  0  0
 25 26  2  0  0  0  0
 25 27  1  0  0  0  0
 27 28  1  0  0  0  0
 27 30  1  0  0  0  0
 27 53  1  0  0  0  0
 28 32  1  0  0  0  0
 28 54  1  0  0  0  0
 28 55  1  0  0  0  0
 29 56  1  0  0  0  0
 29 57  1  0  0  0  0
 29 58  1  0  0  0  0
 30 31  1  0  0  0  0
 30 33  1  0  0  0  0
 31 59  1  0  0  0  0
 31 60  1  0  0  0  0
 31 61  1  0  0  0  0
 32 34  1  0  0  0  0
 32 62  1  0  0  0  0
 32 63  1  0  0  0  0
 33 64  1  0  0  0  0
 33 65  1  0  0  0  0
 33 66  1  0  0  0  0
 34 67  1  0  0  0  0
M  END
> <rseq>
1

> <mseq>
424

> <S>
-7.455622

> <rmsd_refine>
1.291733

> <E_conf>
65.26282

> <E_score1>
-10.98822

> <E_refine>
-42.0996

> <E_score2>
-7.455622

>  <$File>
outputs/pdb_4j58_cleaned.pdb_2024_06_17__22_47_40_V2_BS398_MIN1_/SDF/sdf_db.sdf

> <Rec_index>
1

>  <PLIF_raw>
[[26,1,6,5,4,3,2],[1499,820,820,820,820,820,820],[101,54,54,54,54,54,54],[4,10,10,10,10,10,10],[1.4,0.7,0.7,0.7,0.7,0.7,0.7]]

> <FP:PLIF>
2 11

>  <PLIF_ligidx>
[[1,6,5,4,3,2],26]

$$$$
424
  MOE2022           3D

 61 64  0  0  1  0  0  0  0  0999 V2000
    2.5720   16.2970   20.8730 C   0  0  0  0  0  0  0  0  0  0  0  0
    1.2700   15.8600   21.0630 C   0  0  0  0  0  0  0  0  0  0  0  0
    2.9170   16.9730   19.7110 C   0  0  0  0  0  0  0  0  0  0  0  0
    0.3130   16.0820   20.0800 C   0  0  0  0  0  0  0  0  0  0  0  0
    0.6630   16.7470   18.9080 C   0  0  0  0  0  0  0  0  0  0  0  0
    1.9660   17.2040   18.7160 C   0  0  0  0  0  0  0  0  0  0  0  0
    2.3280   17.9030   17.4150 C   0  0  1  0  0  0  0  0  0  0  0  0
    3.4310   18.8660   17.5690 N   0  0  0  0  0  0  0  0  0  0  0  0
    2.6240   16.8930   16.3140 C   0  0  0  0  0  0  0  0  0  0  0  0
    3.7910   19.7740   16.6000 C   0  0  0  0  0  0  0  0  0  0  0  0
    1.8720   16.9790   15.2090 N   0  0  0  0  0  0  0  0  0  0  0  0
    2.9960   19.9570   15.6790 O   0  0  0  0  0  0  0  0  0  0  0  0
    5.0970   20.4490   16.7020 C   0  0  0  0  0  0  0  0  0  0  0  0
    3.5440   16.0810   16.4050 O   0  0  0  0  0  0  0  0  0  0  0  0
    2.1810   16.2630   13.9820 C   0  0  1  0  0  0  0  0  0  0  0  0
    1.5110   14.9020   13.8960 C   0  0  0  0  0  0  0  0  0  0  0  0
    1.7010   16.9810   12.7270 C   0  0  0  0  0  0  0  0  0  0  0  0
    5.9650   20.1760   17.7750 C   0  0  0  0  0  0  0  0  0  0  0  0
    1.0910   14.7690   12.4270 C   0  0  0  0  0  0  0  0  0  0  0  0
    5.5490   21.3650   15.7260 C   0  0  0  0  0  0  0  0  0  0  0  0
    1.5560   15.9610   11.6830 N   0  0  0  0  0  0  0  0  0  0  0  0
    7.2240   20.7670   17.8590 C   0  0  0  0  0  0  0  0  0  0  0  0
    4.7910   21.6910   14.6420 O   0  0  0  0  0  0  0  0  0  0  0  0
    2.7540   15.8580   10.9130 C   0  0  0  0  0  0  0  0  0  0  0  0
    7.6410   21.6590   16.8720 C   0  0  0  0  0  0  0  0  0  0  0  0
    6.8040   21.9640   15.8090 C   0  0  0  0  0  0  0  0  0  0  0  0
    8.1490   20.4270   19.0040 C   0  0  0  0  0  0  0  0  0  0  0  0
    2.9770   16.7960    9.8890 C   0  0  0  0  0  0  0  0  0  0  0  0
    3.7330   14.8840   11.1730 C   0  0  0  0  0  0  0  0  0  0  0  0
    4.9080   14.8640   10.4260 C   0  0  0  0  0  0  0  0  0  0  0  0
    5.1040   15.8120    9.4250 C   0  0  0  0  0  0  0  0  0  0  0  0
    2.0230   17.7400    9.6060 O   0  0  0  0  0  0  0  0  0  0  0  0
    6.2560   15.7860    8.7000 O   0  0  0  0  0  0  0  0  0  0  0  0
    4.1490   16.7840    9.1450 C   0  0  0  0  0  0  0  0  0  0  0  0
    3.3030   16.1130   21.6160 H   0  0  0  0  0  0  0  0  0  0  0  0
    1.0180   15.3610   21.9570 H   0  0  0  0  0  0  0  0  0  0  0  0
    3.9110   17.3080   19.5900 H   0  0  0  0  0  0  0  0  0  0  0  0
   -0.6820   15.7460   20.2200 H   0  0  0  0  0  0  0  0  0  0  0  0
   -0.0700   16.9040   18.1590 H   0  0  0  0  0  0  0  0  0  0  0  0
    1.4560   18.4730   17.1190 H   0  0  0  0  0  0  0  0  0  0  0  0
    4.0890   18.6860   18.3400 H   0  0  0  0  0  0  0  0  0  0  0  0
    1.1340   17.6660   15.1720 H   0  0  0  0  0  0  0  0  0  0  0  0
    3.2600   16.1320   13.8780 H   0  0  0  0  0  0  0  0  0  0  0  0
    2.2180   14.1190   14.1660 H   0  0  0  0  0  0  0  0  0  0  0  0
    0.6290   14.8540   14.5360 H   0  0  0  0  0  0  0  0  0  0  0  0
    0.7370   17.4390   12.9080 H   0  0  0  0  0  0  0  0  0  0  0  0
    2.3790   17.7760   12.4470 H   0  0  0  0  0  0  0  0  0  0  0  0
    5.6760   19.5000   18.5360 H   0  0  0  0  0  0  0  0  0  0  0  0
    1.4400   13.8450   11.9870 H   0  0  0  0  0  0  0  0  0  0  0  0
    0.0110   14.7240   12.3690 H   0  0  0  0  0  0  0  0  0  0  0  0
    3.9180   21.2450   14.6980 H   0  0  0  0  0  0  0  0  0  0  0  0
    8.6010   22.1070   16.9320 H   0  0  0  0  0  0  0  0  0  0  0  0
    7.1180   22.6480   15.0630 H   0  0  0  0  0  0  0  0  0  0  0  0
    8.8030   19.6010   18.7240 H   0  0  0  0  0  0  0  0  0  0  0  0
    8.7710   21.2830   19.2670 H   0  0  0  0  0  0  0  0  0  0  0  0
    7.5830   20.1350   19.8880 H   0  0  0  0  0  0  0  0  0  0  0  0
    3.6000   14.1690   11.9410 H   0  0  0  0  0  0  0  0  0  0  0  0
    5.6500   14.1330   10.6200 H   0  0  0  0  0  0  0  0  0  0  0  0
    1.2400   17.5610   10.1640 H   0  0  0  0  0  0  0  0  0  0  0  0
    6.2490   16.4920    8.0240 H   0  0  0  0  0  0  0  0  0  0  0  0
    4.3090   17.4980    8.3790 H   0  0  0  0  0  0  0  0  0  0  0  0
  1  2  2  0  0  0  0
  1  3  1  0  0  0  0
  1 35  1  0  0  0  0
  2  4  1  0  0  0  0
  2 36  1  0  0  0  0
  3  6  2  0  0  0  0
  3 37  1  0  0  0  0
  4  5  2  0  0  0  0
  4 38  1  0  0  0  0
  5  6  1  0  0  0  0
  5 39  1  0  0  0  0
  6  7  1  0  0  0  0
  7  8  1  0  0  0  0
  7  9  1  0  0  0  0
  7 40  1  0  0  0  0
  8 10  1  0  0  0  0
  8 41  1  0  0  0  0
  9 11  1  0  0  0  0
  9 14  2  0  0  0  0
 10 12  2  0  0  0  0
 10 13  1  0  0  0  0
 11 15  1  0  0  0  0
 11 42  1  0  0  0  0
 13 18  1  0  0  0  0
 13 20  2  0  0  0  0
 15 16  1  0  0  0  0
 15 17  1  0  0  0  0
 15 43  1  0  0  0  0
 16 19  1  0  0  0  0
 16 44  1  0  0  0  0
 16 45  1  0  0  0  0
 17 21  1  0  0  0  0
 17 46  1  0  0  0  0
 17 47  1  0  0  0  0
 18 22  2  0  0  0  0
 18 48  1  0  0  0  0
 19 21  1  0  0  0  0
 19 49  1  0  0  0  0
 19 50  1  0  0  0  0
 20 23  1  0  0  0  0
 20 26  1  0  0  0  0
 21 24  1  0  0  0  0
 22 25  1  0  0  0  0
 22 27  1  0  0  0  0
 23 51  1  0  0  0  0
 24 28  1  0  0  0  0
 24 29  2  0  0  0  0
 25 26  2  0  0  0  0
 25 52  1  0  0  0  0
 26 53  1  0  0  0  0
 27 54  1  0  0  0  0
 27 55  1  0  0  0  0
 27 56  1  0  0  0  0
 28 32  1  0  0  0  0
 28 34  2  0  0  0  0
 29 30  1  0  0  0  0
 29 57  1  0  0  0  0
 30 31  2  0  0  0  0
 30 58  1  0  0  0  0
 31 33  1  0  0  0  0
 31 34  1  0  0  0  0
 32 59  1  0  0  0  0
 33 60  1  0  0  0  0
 34 61  1  0  0  0  0
M  END
> <rseq>
1

> <mseq>
425

> <S>
-7.216371

> <rmsd_refine>
1.537151

> <E_conf>
-1.467406

> <E_score1>
-10.42027

> <E_refine>
-40.64527

> <E_score2>
-7.216371

>  <$File>
outputs/pdb_4j58_cleaned.pdb_2024_06_17__22_47_40_V2_BS398_MIN1_/SDF/sdf_db.sdf

> <Rec_index>
1

>  <PLIF_raw>
[14,954,62,2,2.6]

> <FP:PLIF>
20 23

>  <PLIF_ligidx>
[14,14]

$$$$
425
  MOE2022           3D

 64 67  0  0  1  0  0  0  0  0999 V2000
    3.5350   17.6540   19.6940 O   0  0  0  0  0  0  0  0  0  0  0  0
    2.5860   17.2820   18.9930 C   0  0  0  0  0  0  0  0  0  0  0  0
    1.4930   16.4820   19.4730 C   0  0  0  0  0  0  0  0  0  0  0  0
    2.5700   17.6420   17.6410 N   0  0  0  0  0  0  0  0  0  0  0  0
    0.5130   16.1060   18.6040 C   0  0  0  0  0  0  0  0  0  0  0  0
    1.5720   17.1400   16.7900 C   0  0  0  0  0  0  0  0  0  0  0  0
    0.5860   16.4400   17.2710 N   0  0  0  0  0  0  0  0  0  0  0  0
    1.7010   17.3690   15.3610 C   0  0  0  0  0  0  0  0  0  0  0  0
    3.6250   18.5660   17.1330 C   0  0  0  0  0  0  0  0  0  0  0  0
    1.4640   16.0730   20.9380 C   0  0  0  0  0  0  0  0  0  0  0  0
   -0.6810   15.2670   19.0120 C   0  0  0  0  0  0  0  0  0  0  0  0
    3.3430   20.0690   17.3240 C   0  0  1  0  0  0  0  0  0  0  0  0
    4.5670   20.7900   17.8040 C   0  0  0  0  0  0  0  0  0  0  0  0
    0.9230   18.3330   14.7040 C   0  0  0  0  0  0  0  0  0  0  0  0
    3.0650   20.8110   16.0050 C   0  0  0  0  0  0  0  0  0  0  0  0
    1.0680   18.5470   13.3370 C   0  0  0  0  0  0  0  0  0  0  0  0
    2.0000   17.7970   12.6130 C   0  0  0  0  0  0  0  0  0  0  0  0
    2.1170   18.0340   11.2670 O   0  0  0  0  0  0  0  0  0  0  0  0
    2.6070   16.6100   14.6000 C   0  0  0  0  0  0  0  0  0  0  0  0
    3.3440   15.6320   15.1970 O   0  0  0  0  0  0  0  0  0  0  0  0
    4.1550   21.7780   15.7810 O   0  0  0  0  0  0  0  0  0  0  0  0
    3.3910   18.1650   10.5800 C   0  0  0  0  0  0  0  0  0  0  0  0
    2.7710   16.8190   13.2360 C   0  0  0  0  0  0  0  0  0  0  0  0
    4.9730   21.7300   16.8780 C   0  0  0  0  0  0  0  0  0  0  0  0
    6.1000   22.5200   17.0750 C   0  0  0  0  0  0  0  0  0  0  0  0
    6.8340   22.3450   18.2470 C   0  0  0  0  0  0  0  0  0  0  0  0
    3.4350   17.3740    9.2630 C   0  0  1  0  0  0  0  0  0  0  0  0
    6.4350   21.3970   19.1940 C   0  0  0  0  0  0  0  0  0  0  0  0
    5.2960   20.6180   18.9760 C   0  0  0  0  0  0  0  0  0  0  0  0
    4.4390   17.9170    8.4310 O   0  0  0  0  0  0  0  0  0  0  0  0
    3.6380   15.8520    9.4300 C   0  0  0  0  0  0  0  0  0  0  0  0
    4.9130   15.4020   10.1720 C   0  0  2  0  0  0  0  0  0  0  0  0
    6.0880   15.8200    9.5110 O   0  0  0  0  0  0  0  0  0  0  0  0
    4.9600   13.8780   10.3140 C   0  0  0  0  0  0  0  0  0  0  0  0
    4.5520   18.3600   17.6370 H   0  0  0  0  0  0  0  0  0  0  0  0
    3.8850   18.3640   16.1050 H   0  0  0  0  0  0  0  0  0  0  0  0
    0.6920   16.6070   21.4730 H   0  0  0  0  0  0  0  0  0  0  0  0
    1.2740   15.0150   21.0400 H   0  0  0  0  0  0  0  0  0  0  0  0
    2.4010   16.2610   21.4420 H   0  0  0  0  0  0  0  0  0  0  0  0
   -1.0870   15.5760   19.9650 H   0  0  0  0  0  0  0  0  0  0  0  0
   -1.4830   15.3390   18.2890 H   0  0  0  0  0  0  0  0  0  0  0  0
   -0.4110   14.2230   19.0880 H   0  0  0  0  0  0  0  0  0  0  0  0
    2.5320   20.2200   18.0350 H   0  0  0  0  0  0  0  0  0  0  0  0
    0.2180   18.9030   15.2540 H   0  0  0  0  0  0  0  0  0  0  0  0
    3.0230   20.1220   15.1620 H   0  0  0  0  0  0  0  0  0  0  0  0
    2.1230   21.3540   16.0800 H   0  0  0  0  0  0  0  0  0  0  0  0
    0.4780   19.2760   12.8440 H   0  0  0  0  0  0  0  0  0  0  0  0
    3.0190   15.4590   16.1050 H   0  0  0  0  0  0  0  0  0  0  0  0
    3.5270   19.2230   10.3520 H   0  0  0  0  0  0  0  0  0  0  0  0
    4.2060   17.8610   11.2320 H   0  0  0  0  0  0  0  0  0  0  0  0
    3.4520   16.2280   12.6860 H   0  0  0  0  0  0  0  0  0  0  0  0
    6.3920   23.2360   16.3510 H   0  0  0  0  0  0  0  0  0  0  0  0
    7.7000   22.9310   18.4210 H   0  0  0  0  0  0  0  0  0  0  0  0
    2.4810   17.5290    8.7570 H   0  0  0  0  0  0  0  0  0  0  0  0
    7.0030   21.2660   20.0790 H   0  0  0  0  0  0  0  0  0  0  0  0
    4.9970   19.8990   19.6940 H   0  0  0  0  0  0  0  0  0  0  0  0
    4.3770   17.5020    7.5670 H   0  0  0  0  0  0  0  0  0  0  0  0
    2.7750   15.4640    9.9730 H   0  0  0  0  0  0  0  0  0  0  0  0
    3.6290   15.3940    8.4400 H   0  0  0  0  0  0  0  0  0  0  0  0
    4.9080   15.8260   11.1700 H   0  0  0  0  0  0  0  0  0  0  0  0
    5.9690   16.7300    9.2200 H   0  0  0  0  0  0  0  0  0  0  0  0
    5.8650   13.5860   10.8470 H   0  0  0  0  0  0  0  0  0  0  0  0
    4.0950   13.5330   10.8810 H   0  0  0  0  0  0  0  0  0  0  0  0
    4.9570   13.4100    9.3290 H   0  0  0  0  0  0  0  0  0  0  0  0
  1  2  2  0  0  0  0
  2  3  1  0  0  0  0
  2  4  1  0  0  0  0
  3  5  2  0  0  0  0
  3 10  1  0  0  0  0
  4  6  1  0  0  0  0
  4  9  1  0  0  0  0
  5  7  1  0  0  0  0
  5 11  1  0  0  0  0
  6  7  2  0  0  0  0
  6  8  1  0  0  0  0
  8 14  1  0  0  0  0
  8 19  2  0  0  0  0
  9 12  1  0  0  0  0
  9 35  1  0  0  0  0
  9 36  1  0  0  0  0
 10 37  1  0  0  0  0
 10 38  1  0  0  0  0
 10 39  1  0  0  0  0
 11 40  1  0  0  0  0
 11 41  1  0  0  0  0
 11 42  1  0  0  0  0
 12 13  1  0  0  0  0
 12 15  1  0  0  0  0
 12 43  1  0  0  0  0
 13 24  2  0  0  0  0
 13 29  1  0  0  0  0
 14 16  2  0  0  0  0
 14 44  1  0  0  0  0
 15 21  1  0  0  0  0
 15 45  1  0  0  0  0
 15 46  1  0  0  0  0
 16 17  1  0  0  0  0
 16 47  1  0  0  0  0
 17 18  1  0  0  0  0
 17 23  2  0  0  0  0
 18 22  1  0  0  0  0
 19 20  1  0  0  0  0
 19 23  1  0  0  0  0
 20 48  1  0  0  0  0
 21 24  1  0  0  0  0
 22 27  1  0  0  0  0
 22 49  1  0  0  0  0
 22 50  1  0  0  0  0
 23 51  1  0  0  0  0
 24 25  1  0  0  0  0
 25 26  2  0  0  0  0
 25 52  1  0  0  0  0
 26 28  1  0  0  0  0
 26 53  1  0  0  0  0
 27 30  1  0  0  0  0
 27 31  1  0  0  0  0
 27 54  1  0  0  0  0
 28 29  2  0  0  0  0
 28 55  1  0  0  0  0
 29 56  1  0  0  0  0
 30 57  1  0  0  0  0
 31 32  1  0  0  0  0
 31 58  1  0  0  0  0
 31 59  1  0  0  0  0
 32 33  1  0  0  0  0
 32 34  1  0  0  0  0
 32 60  1  0  0  0  0
 33 61  1  0  0  0  0
 34 62  1  0  0  0  0
 34 63  1  0  0  0  0
 34 64  1  0  0  0  0
M  END
> <rseq>
1

> <mseq>
426

> <S>
-6.76616

> <rmsd_refine>
0.7971504

> <E_conf>
-55.28253

> <E_score1>
-13.45172

> <E_refine>
-35.48766

> <E_score2>
-6.76616

>  <$File>
outputs/pdb_4j58_cleaned.pdb_2024_06_17__22_47_40_V2_BS398_MIN1_/SDF/sdf_db.sdf

> <Rec_index>
1

>  <PLIF_raw>
[[2,4,6,7,5,3],[954,954,954,954,954,954],[62,62,62,62,62,62],[10,10,10,10,10,10],[0.6,0.6,0.6,0.6,0.6,0.6]]

> <FP:PLIF>
21

>  <PLIF_ligidx>
[[2,4,6,7,5,3]]

$$$$
426
  MOE2022           3D

 62 63  0  0  1  0  0  0  0  0999 V2000
    2.7710   12.2960   10.4140 C   0  0  0  0  0  0  0  0  0  0  0  0
    2.0210   12.9440   11.3870 C   0  0  0  0  0  0  0  0  0  0  0  0
    2.5050   14.1250   11.9710 C   0  0  0  0  0  0  0  0  0  0  0  0
    2.2880   11.1490    9.8460 O   0  0  0  0  0  0  0  0  0  0  0  0
    3.7320   14.6510   11.5270 C   0  0  0  0  0  0  0  0  0  0  0  0
    1.7410   14.8000   13.0170 C   0  0  0  0  0  0  0  0  0  0  0  0
    2.4480   15.4840   13.9840 N   0  0  0  0  0  0  0  0  0  0  0  0
    0.5150   14.7750   13.0800 O   0  0  0  0  0  0  0  0  0  0  0  0
    4.0080   12.8080   10.0120 C   0  0  0  0  0  0  0  0  0  0  0  0
    1.9230   16.3380   15.0270 C   0  0  0  0  0  0  0  0  0  0  0  0
    2.5300   16.2070   16.3220 C   0  0  0  0  0  0  0  0  0  0  0  0
    0.9840   17.3040   14.8010 C   0  0  0  0  0  0  0  0  0  0  0  0
    3.5810   15.5920   16.5230 O   0  0  0  0  0  0  0  0  0  0  0  0
    0.3910   17.5440   13.6000 O   0  0  0  0  0  0  0  0  0  0  0  0
    0.6120   18.1730   15.8350 N   0  0  0  0  0  0  0  0  0  0  0  0
    4.7580   12.1540    9.0740 O   0  0  0  0  0  0  0  0  0  0  0  0
    1.9100   16.8660   17.3990 N   0  0  0  0  0  0  0  0  0  0  0  0
    0.1280   19.5400   15.5350 C   0  0  0  0  0  0  0  0  0  0  0  0
    4.4880   13.9920   10.5630 C   0  0  0  0  0  0  0  0  0  0  0  0
    0.9610   17.8720   17.1600 C   0  0  0  0  0  0  0  0  0  0  0  0
    1.2420   20.4720   15.0120 C   0  0  0  0  0  0  0  0  0  0  0  0
    0.4920   18.5160   18.0910 O   0  0  0  0  0  0  0  0  0  0  0  0
    2.3410   16.6340   18.8100 C   0  0  0  0  0  0  0  0  0  0  0  0
    2.4990   20.5270   15.9050 C   0  0  0  0  0  0  0  0  0  0  0  0
    3.6470   21.2920   15.2290 C   0  0  0  0  0  0  0  0  0  0  0  0
    4.9940   21.0430   15.9310 C   0  0  0  0  0  0  0  0  0  0  0  0
    5.1880   21.8000   17.2580 C   0  0  2  0  0  0  0  0  0  0  0  0
    5.3970   23.1630   16.9380 O   0  0  0  0  0  0  0  0  0  0  0  0
    1.3180   16.0220   19.7590 C   0  0  0  0  0  0  0  0  0  0  0  0
    0.8410   14.8940   19.5020 O   0  5  0  0  0  0  0  0  0  0  0  0
    6.3790   21.2140   18.0640 C   0  0  0  0  0  0  0  0  0  0  0  0
    1.0220   16.6670   20.7880 O   0  0  0  0  0  0  0  0  0  0  0  0
    7.0260   22.2190   19.0330 C   0  0  0  0  0  0  0  0  0  0  0  0
    5.9160   19.9930   18.8790 C   0  0  0  0  0  0  0  0  0  0  0  0
    1.0870   12.5440   11.6850 H   0  0  0  0  0  0  0  0  0  0  0  0
    2.9210   10.8380    9.1690 H   0  0  0  0  0  0  0  0  0  0  0  0
    4.0870   15.5660   11.9220 H   0  0  0  0  0  0  0  0  0  0  0  0
    3.4610   15.2890   14.0130 H   0  0  0  0  0  0  0  0  0  0  0  0
    0.5940   16.8170   12.9780 H   0  0  0  0  0  0  0  0  0  0  0  0
    5.6030   12.6220    8.9290 H   0  0  0  0  0  0  0  0  0  0  0  0
   -0.6760   19.4980   14.8130 H   0  0  0  0  0  0  0  0  0  0  0  0
   -0.3270   19.9890   16.4070 H   0  0  0  0  0  0  0  0  0  0  0  0
    5.4180   14.3910   10.2490 H   0  0  0  0  0  0  0  0  0  0  0  0
    1.5300   20.1180   14.0220 H   0  0  0  0  0  0  0  0  0  0  0  0
    0.8330   21.4770   14.9060 H   0  0  0  0  0  0  0  0  0  0  0  0
    3.2080   16.0020   18.8190 H   0  0  0  0  0  0  0  0  0  0  0  0
    2.6880   17.5700   19.2270 H   0  0  0  0  0  0  0  0  0  0  0  0
    2.2490   20.9910   16.8600 H   0  0  0  0  0  0  0  0  0  0  0  0
    2.8460   19.5120   16.0920 H   0  0  0  0  0  0  0  0  0  0  0  0
    3.7420   20.9380   14.2020 H   0  0  0  0  0  0  0  0  0  0  0  0
    3.4220   22.3590   15.2030 H   0  0  0  0  0  0  0  0  0  0  0  0
    5.1000   19.9720   16.1000 H   0  0  0  0  0  0  0  0  0  0  0  0
    5.7920   21.3460   15.2510 H   0  0  0  0  0  0  0  0  0  0  0  0
    4.2820   21.7220   17.8610 H   0  0  0  0  0  0  0  0  0  0  0  0
    5.4660   23.6610   17.7550 H   0  0  0  0  0  0  0  0  0  0  0  0
    7.1520   20.8860   17.3660 H   0  0  0  0  0  0  0  0  0  0  0  0
    7.7820   21.7210   19.6420 H   0  0  0  0  0  0  0  0  0  0  0  0
    7.5160   23.0160   18.4730 H   0  0  0  0  0  0  0  0  0  0  0  0
    6.2660   22.6500   19.6800 H   0  0  0  0  0  0  0  0  0  0  0  0
    6.7700   19.5330   19.3790 H   0  0  0  0  0  0  0  0  0  0  0  0
    5.1840   20.2960   19.6300 H   0  0  0  0  0  0  0  0  0  0  0  0
    5.4570   19.2500   18.2270 H   0  0  0  0  0  0  0  0  0  0  0  0
  1  2  1  0  0  0  0
  1  4  1  0  0  0  0
  1  9  2  0  0  0  0
  2  3  2  0  0  0  0
  2 35  1  0  0  0  0
  3  5  1  0  0  0  0
  3  6  1  0  0  0  0
  4 36  1  0  0  0  0
  5 19  2  0  0  0  0
  5 37  1  0  0  0  0
  6  7  1  0  0  0  0
  6  8  2  0  0  0  0
  7 10  1  0  0  0  0
  7 38  1  0  0  0  0
  9 16  1  0  0  0  0
  9 19  1  0  0  0  0
 10 11  1  0  0  0  0
 10 12  2  0  0  0  0
 11 13  2  0  0  0  0
 11 17  1  0  0  0  0
 12 14  1  0  0  0  0
 12 15  1  0  0  0  0
 14 39  1  0  0  0  0
 15 18  1  0  0  0  0
 15 20  1  0  0  0  0
 16 40  1  0  0  0  0
 17 20  1  0  0  0  0
 17 23  1  0  0  0  0
 18 21  1  0  0  0  0
 18 41  1  0  0  0  0
 18 42  1  0  0  0  0
 19 43  1  0  0  0  0
 20 22  2  0  0  0  0
 21 24  1  0  0  0  0
 21 44  1  0  0  0  0
 21 45  1  0  0  0  0
 23 29  1  0  0  0  0
 23 46  1  0  0  0  0
 23 47  1  0  0  0  0
 24 25  1  0  0  0  0
 24 48  1  0  0  0  0
 24 49  1  0  0  0  0
 25 26  1  0  0  0  0
 25 50  1  0  0  0  0
 25 51  1  0  0  0  0
 26 27  1  0  0  0  0
 26 52  1  0  0  0  0
 26 53  1  0  0  0  0
 27 28  1  0  0  0  0
 27 31  1  0  0  0  0
 27 54  1  0  0  0  0
 28 55  1  0  0  0  0
 29 30  1  0  0  0  0
 29 32  2  0  0  0  0
 31 33  1  0  0  0  0
 31 34  1  0  0  0  0
 31 56  1  0  0  0  0
 33 57  1  0  0  0  0
 33 58  1  0  0  0  0
 33 59  1  0  0  0  0
 34 60  1  0  0  0  0
 34 61  1  0  0  0  0
 34 62  1  0  0  0  0
M  CHG  1  30  -1
M  END
> <rseq>
1

> <mseq>
427

> <S>
-6.439648

> <rmsd_refine>
1.943274

> <E_conf>
-139.0738

> <E_score1>
-11.30554

> <E_refine>
-35.55094

> <E_score2>
-6.439648

>  <$File>
outputs/pdb_4j58_cleaned.pdb_2024_06_17__22_47_40_V2_BS398_MIN1_/SDF/sdf_db.sdf

> <Rec_index>
1

>  <PLIF_raw>
[[23,13,30,30],[1617,954,1212,1212],[110,62,81,81],[1,2,2,7],[0.5,1,2.9,2.284199053]]

> <FP:PLIF>
20 17 18 24 26

>  <PLIF_ligidx>
[13,30,30,30,23]

$$$$
409
  MOE2022           3D

 61 64  0  0  1  0  0  0  0  0999 V2000
    2.2490   16.3040   20.6710 C   0  0  0  0  0  0  0  0  0  0  0  0
    0.9360   15.8730   20.7840 C   0  0  0  0  0  0  0  0  0  0  0  0
    2.6720   16.9370   19.5090 C   0  0  0  0  0  0  0  0  0  0  0  0
    0.0480   16.0560   19.7300 C   0  0  0  0  0  0  0  0  0  0  0  0
    0.4710   16.6910   18.5670 C   0  0  0  0  0  0  0  0  0  0  0  0
    1.7840   17.1470   18.4500 C   0  0  0  0  0  0  0  0  0  0  0  0
    2.2300   17.8380   17.1710 C   0  0  1  0  0  0  0  0  0  0  0  0
    3.2310   18.8720   17.4700 N   0  0  0  0  0  0  0  0  0  0  0  0
    2.6920   16.8180   16.1350 C   0  0  0  0  0  0  0  0  0  0  0  0
    4.0440   19.5210   16.5720 C   0  0  0  0  0  0  0  0  0  0  0  0
    2.1340   16.9150   14.9200 N   0  0  0  0  0  0  0  0  0  0  0  0
    3.7510   19.4710   15.3780 O   0  0  0  0  0  0  0  0  0  0  0  0
    5.2240   20.2140   17.0990 C   0  0  0  0  0  0  0  0  0  0  0  0
    3.5670   15.9890   16.3820 O   0  0  0  0  0  0  0  0  0  0  0  0
    2.5370   16.1220   13.7680 C   0  0  1  0  0  0  0  0  0  0  0  0
    1.4820   15.1060   13.3600 C   0  0  0  0  0  0  0  0  0  0  0  0
    2.7520   16.9610   12.5110 C   0  0  0  0  0  0  0  0  0  0  0  0
    5.7000   19.9070   18.3890 C   0  0  0  0  0  0  0  0  0  0  0  0
    1.4370   15.1840   11.8280 C   0  0  0  0  0  0  0  0  0  0  0  0
    5.9430   21.1710   16.3450 C   0  0  0  0  0  0  0  0  0  0  0  0
    2.5090   16.0910   11.3580 N   0  0  0  0  0  0  0  0  0  0  0  0
    6.8540   20.5040   18.8710 C   0  0  0  0  0  0  0  0  0  0  0  0
    5.5140   21.5590   15.1070 O   0  0  0  0  0  0  0  0  0  0  0  0
    3.7070   15.5350   10.8390 C   0  0  0  0  0  0  0  0  0  0  0  0
    7.5720   21.4110   18.0870 C   0  0  0  0  0  0  0  0  0  0  0  0
    8.7350   21.9510   18.5530 O   0  0  0  0  0  0  0  0  0  0  0  0
    7.2770   20.1880   20.1320 O   0  0  0  0  0  0  0  0  0  0  0  0
    7.1130   21.7610   16.8230 C   0  0  0  0  0  0  0  0  0  0  0  0
    4.4970   16.2970    9.9580 C   0  0  0  0  0  0  0  0  0  0  0  0
    4.1220   14.2490   11.2160 C   0  0  0  0  0  0  0  0  0  0  0  0
    4.0740   17.6820    9.5020 C   0  0  0  0  0  0  0  0  0  0  0  0
    5.6960   15.7620    9.4910 C   0  0  0  0  0  0  0  0  0  0  0  0
    5.3210   13.7380   10.7410 C   0  0  0  0  0  0  0  0  0  0  0  0
    6.1100   14.4940    9.8840 C   0  0  0  0  0  0  0  0  0  0  0  0
    2.9280   16.1520   21.4700 H   0  0  0  0  0  0  0  0  0  0  0  0
    0.6170   15.4060   21.6720 H   0  0  0  0  0  0  0  0  0  0  0  0
    3.6780   17.2560   19.4400 H   0  0  0  0  0  0  0  0  0  0  0  0
   -0.9530   15.7180   19.8130 H   0  0  0  0  0  0  0  0  0  0  0  0
   -0.2120   16.8280   17.7680 H   0  0  0  0  0  0  0  0  0  0  0  0
    1.3690   18.3560   16.7680 H   0  0  0  0  0  0  0  0  0  0  0  0
    3.4050   19.0270   18.4750 H   0  0  0  0  0  0  0  0  0  0  0  0
    1.4360   17.6270   14.7630 H   0  0  0  0  0  0  0  0  0  0  0  0
    3.4700   15.5920   13.9600 H   0  0  0  0  0  0  0  0  0  0  0  0
    1.7760   14.1100   13.6920 H   0  0  0  0  0  0  0  0  0  0  0  0
    0.5030   15.3620   13.7670 H   0  0  0  0  0  0  0  0  0  0  0  0
    2.0440   17.7790   12.4870 H   0  0  0  0  0  0  0  0  0  0  0  0
    3.7370   17.4060   12.5010 H   0  0  0  0  0  0  0  0  0  0  0  0
    5.1930   19.2080   19.0010 H   0  0  0  0  0  0  0  0  0  0  0  0
    1.4890   14.2060   11.3690 H   0  0  0  0  0  0  0  0  0  0  0  0
    0.4840   15.5940   11.5230 H   0  0  0  0  0  0  0  0  0  0  0  0
    4.6760   21.1000   14.8850 H   0  0  0  0  0  0  0  0  0  0  0  0
    8.9570   21.5640   19.4250 H   0  0  0  0  0  0  0  0  0  0  0  0
    6.7350   19.4680   20.5060 H   0  0  0  0  0  0  0  0  0  0  0  0
    7.6460   22.4620   16.2330 H   0  0  0  0  0  0  0  0  0  0  0  0
    3.5380   13.6640   11.8730 H   0  0  0  0  0  0  0  0  0  0  0  0
    4.2400   18.4110   10.2950 H   0  0  0  0  0  0  0  0  0  0  0  0
    4.6400   17.9960    8.6250 H   0  0  0  0  0  0  0  0  0  0  0  0
    3.0180   17.6940    9.2330 H   0  0  0  0  0  0  0  0  0  0  0  0
    6.3010   16.3180    8.8220 H   0  0  0  0  0  0  0  0  0  0  0  0
    5.6390   12.7710   11.0350 H   0  0  0  0  0  0  0  0  0  0  0  0
    7.0230   14.0980    9.5290 H   0  0  0  0  0  0  0  0  0  0  0  0
  1  2  2  0  0  0  0
  1  3  1  0  0  0  0
  1 35  1  0  0  0  0
  2  4  1  0  0  0  0
  2 36  1  0  0  0  0
  3  6  2  0  0  0  0
  3 37  1  0  0  0  0
  4  5  2  0  0  0  0
  4 38  1  0  0  0  0
  5  6  1  0  0  0  0
  5 39  1  0  0  0  0
  6  7  1  0  0  0  0
  7  8  1  0  0  0  0
  7  9  1  0  0  0  0
  7 40  1  0  0  0  0
  8 10  1  0  0  0  0
  8 41  1  0  0  0  0
  9 11  1  0  0  0  0
  9 14  2  0  0  0  0
 10 12  2  0  0  0  0
 10 13  1  0  0  0  0
 11 15  1  0  0  0  0
 11 42  1  0  0  0  0
 13 18  1  0  0  0  0
 13 20  2  0  0  0  0
 15 16  1  0  0  0  0
 15 17  1  0  0  0  0
 15 43  1  0  0  0  0
 16 19  1  0  0  0  0
 16 44  1  0  0  0  0
 16 45  1  0  0  0  0
 17 21  1  0  0  0  0
 17 46  1  0  0  0  0
 17 47  1  0  0  0  0
 18 22  2  0  0  0  0
 18 48  1  0  0  0  0
 19 21  1  0  0  0  0
 19 49  1  0  0  0  0
 19 50  1  0  0  0  0
 20 23  1  0  0  0  0
 20 28  1  0  0  0  0
 21 24  1  0  0  0  0
 22 25  1  0  0  0  0
 22 27  1  0  0  0  0
 23 51  1  0  0  0  0
 24 29  1  0  0  0  0
 24 30  2  0  0  0  0
 25 26  1  0  0  0  0
 25 28  2  0  0  0  0
 26 52  1  0  0  0  0
 27 53  1  0  0  0  0
 28 54  1  0  0  0  0
 29 31  1  0  0  0  0
 29 32  2  0  0  0  0
 30 33  1  0  0  0  0
 30 55  1  0  0  0  0
 31 56  1  0  0  0  0
 31 57  1  0  0  0  0
 31 58  1  0  0  0  0
 32 34  1  0  0  0  0
 32 59  1  0  0  0  0
 33 34  2  0  0  0  0
 33 60  1  0  0  0  0
 34 61  1  0  0  0  0
M  END
> <rseq>
1

> <mseq>
410

> <S>
-7.624297

> <rmsd_refine>
1.691857

> <E_conf>
-2.147033

> <E_score1>
-9.809307

> <E_refine>
-44.63646

> <E_score2>
-7.624297

>  <$File>
outputs/pdb_4j58_cleaned.pdb_2024_06_17__22_47_40_V2_BS398_MIN1_/SDF/sdf_db.sdf

> <Rec_index>
1

>  <PLIF_raw>
[[14,26,26,26,26,26,26],[954,1651,1655,1659,1657,1653,1650],[62,112,112,112,112,112,112],[2,10,10,10,10,10,10],[2.1,2.2,2.2,2.2,2.2,2.2,2.2]]

> <FP:PLIF>
20 23 15 47

>  <PLIF_ligidx>
[14,14,[26,26,26,26,26,26],[26,26,26,26,26,26]]

$$$$
410
  MOE2022           3D

 59 62  0  0  1  0  0  0  0  0999 V2000
    6.5690   19.9420   18.8570 C   0  0  0  0  0  0  0  0  0  0  0  0
    7.5610   20.7560   18.3670 C   0  0  0  0  0  0  0  0  0  0  0  0
    5.3340   19.8320   18.1810 C   0  0  0  0  0  0  0  0  0  0  0  0
    4.3210   18.9570   18.6310 C   0  0  0  0  0  0  0  0  0  0  0  0
    3.1310   18.8540   17.9490 C   0  0  0  0  0  0  0  0  0  0  0  0
    7.3620   21.4950   17.1870 C   0  0  0  0  0  0  0  0  0  0  0  0
    8.4860   22.3810   16.6950 C   0  0  0  0  0  0  0  0  0  0  0  0
    6.1550   21.4110   16.4940 C   0  0  0  0  0  0  0  0  0  0  0  0
    2.9280   19.7720   16.8670 C   0  0  0  0  0  0  0  0  0  0  0  0
    5.9590   22.1440   15.2480 C   0  0  0  0  0  0  0  0  0  0  0  0
    2.1480   17.8280   18.3380 C   0  0  0  0  0  0  0  0  0  0  0  0
    6.5810   21.7720   14.2120 O   0  0  0  0  0  0  0  0  0  0  0  0
    5.1970   23.1460   15.2250 O   0  5  0  0  0  0  0  0  0  0  0  0
    2.2600   17.2560   19.4580 O   0  5  0  0  0  0  0  0  0  0  0  0
    1.2280   17.4750   17.5480 O   0  0  0  0  0  0  0  0  0  0  0  0
    1.6660   19.8930   16.3170 N   0  0  0  0  0  0  0  0  0  0  0  0
    5.1060   20.5930   17.0100 C   0  0  0  0  0  0  0  0  0  0  0  0
    1.3590   20.5030   15.0270 C   0  0  0  0  0  0  0  0  0  0  0  0
    3.8820   20.5490   16.3960 N   0  0  0  0  0  0  0  0  0  0  0  0
    1.2090   19.4670   13.9070 C   0  0  1  0  0  0  0  0  0  0  0  0
    2.5370   18.7630   13.5780 C   0  0  0  0  0  0  0  0  0  0  0  0
    0.2300   18.3190   14.2350 C   0  0  0  0  0  0  0  0  0  0  0  0
    1.0750   17.0430   14.2040 C   0  0  0  0  0  0  0  0  0  0  0  0
    2.2540   17.3150   13.3400 N   0  3  1  0  0  0  0  0  0  0  0  0
    1.9550   16.9870   11.9040 C   0  0  0  0  0  0  0  0  0  0  0  0
    3.0680   17.2230   10.9000 C   0  0  0  0  0  0  0  0  0  0  0  0
    4.0070   16.2850   10.5560 C   0  0  0  0  0  0  0  0  0  0  0  0
    4.1430   14.9680   11.2100 C   0  0  0  0  0  0  0  0  0  0  0  0
    3.4350   14.6230   12.1390 O   0  0  0  0  0  0  0  0  0  0  0  0
    3.0120   18.5940   10.2440 C   0  0  0  0  0  0  0  0  0  0  0  0
    4.9580   16.5310    9.4860 C   0  0  0  0  0  0  0  0  0  0  0  0
    5.8770   15.5960    9.1500 C   0  0  0  0  0  0  0  0  0  0  0  0
    5.1410   14.0560   10.8020 N   0  0  0  0  0  0  0  0  0  0  0  0
    5.9420   14.3450    9.8520 C   0  0  0  0  0  0  0  0  0  0  0  0
    6.7320   19.3870   19.7430 H   0  0  0  0  0  0  0  0  0  0  0  0
    8.4850   20.8260   18.8810 H   0  0  0  0  0  0  0  0  0  0  0  0
    4.4930   18.3660   19.4880 H   0  0  0  0  0  0  0  0  0  0  0  0
    9.2470   22.5180   17.4630 H   0  0  0  0  0  0  0  0  0  0  0  0
    8.9590   21.9440   15.8170 H   0  0  0  0  0  0  0  0  0  0  0  0
    8.1030   23.3650   16.4290 H   0  0  0  0  0  0  0  0  0  0  0  0
    0.9710   19.2160   16.6720 H   0  0  0  0  0  0  0  0  0  0  0  0
    0.4150   21.0400   15.1220 H   0  0  0  0  0  0  0  0  0  0  0  0
    2.1200   21.2320   14.7430 H   0  0  0  0  0  0  0  0  0  0  0  0
    0.8790   19.9700   12.9980 H   0  0  0  0  0  0  0  0  0  0  0  0
    3.0390   19.2560   12.7580 H   0  0  0  0  0  0  0  0  0  0  0  0
    3.2050   18.8900   14.4190 H   0  0  0  0  0  0  0  0  0  0  0  0
   -0.2570   18.4350   15.2040 H   0  0  0  0  0  0  0  0  0  0  0  0
   -0.5300   18.2590   13.4550 H   0  0  0  0  0  0  0  0  0  0  0  0
    1.3800   16.8150   15.2170 H   0  0  0  0  0  0  0  0  0  0  0  0
    0.4840   16.1940   13.8890 H   0  0  0  0  0  0  0  0  0  0  0  0
    3.0330   16.7500   13.6490 H   0  0  0  0  0  0  0  0  0  0  0  0
    1.6300   15.9590   11.8110 H   0  0  0  0  0  0  0  0  0  0  0  0
    1.0860   17.5360   11.5660 H   0  0  0  0  0  0  0  0  0  0  0  0
    2.8020   18.5170    9.1860 H   0  0  0  0  0  0  0  0  0  0  0  0
    2.2390   19.2230   10.6650 H   0  0  0  0  0  0  0  0  0  0  0  0
    3.9460   19.1280   10.3600 H   0  0  0  0  0  0  0  0  0  0  0  0
    4.9240   17.4450    8.9530 H   0  0  0  0  0  0  0  0  0  0  0  0
    6.5590   15.7690    8.3600 H   0  0  0  0  0  0  0  0  0  0  0  0
    6.6800   13.6390    9.5680 H   0  0  0  0  0  0  0  0  0  0  0  0
  1  2  1  0  0  0  0
  1  3  2  0  0  0  0
  1 35  1  0  0  0  0
  2  6  2  0  0  0  0
  2 36  1  0  0  0  0
  3  4  1  0  0  0  0
  3 17  1  0  0  0  0
  4  5  2  0  0  0  0
  4 37  1  0  0  0  0
  5  9  1  0  0  0  0
  5 11  1  0  0  0  0
  6  7  1  0  0  0  0
  6  8  1  0  0  0  0
  7 38  1  0  0  0  0
  7 39  1  0  0  0  0
  7 40  1  0  0  0  0
  8 10  1  0  0  0  0
  8 17  2  0  0  0  0
  9 16  1  0  0  0  0
  9 19  2  0  0  0  0
 10 12  2  0  0  0  0
 10 13  1  0  0  0  0
 11 14  1  0  0  0  0
 11 15  2  0  0  0  0
 16 18  1  0  0  0  0
 16 41  1  0  0  0  0
 17 19  1  0  0  0  0
 18 20  1  0  0  0  0
 18 42  1  0  0  0  0
 18 43  1  0  0  0  0
 20 21  1  0  0  0  0
 20 22  1  0  0  0  0
 20 44  1  0  0  0  0
 21 24  1  0  0  0  0
 21 45  1  0  0  0  0
 21 46  1  0  0  0  0
 22 23  1  0  0  0  0
 22 47  1  0  0  0  0
 22 48  1  0  0  0  0
 23 24  1  0  0  0  0
 23 49  1  0  0  0  0
 23 50  1  0  0  0  0
 24 25  1  0  0  0  0
 24 51  1  0  0  0  0
 25 26  1  0  0  0  0
 25 52  1  0  0  0  0
 25 53  1  0  0  0  0
 26 27  2  0  0  0  0
 26 30  1  0  0  0  0
 27 28  1  0  0  0  0
 27 31  1  0  0  0  0
 28 29  2  0  0  0  0
 28 33  1  0  0  0  0
 30 54  1  0  0  0  0
 30 55  1  0  0  0  0
 30 56  1  0  0  0  0
 31 32  2  0  0  0  0
 31 57  1  0  0  0  0
 32 34  1  0  0  0  0
 32 58  1  0  0  0  0
 33 34  2  0  0  0  0
 34 59  1  0  0  0  0
M  CHG  1  13  -1
M  CHG  1  14  -1
M  CHG  1  24   1
M  END
> <rseq>
1

> <mseq>
411

> <S>
-6.173718

> <rmsd_refine>
1.23503

> <E_conf>
-217.8829

> <E_score1>
-11.19214

> <E_refine>
-36.50496

> <E_score2>
-6.173718

>  <$File>
outputs/pdb_4j58_cleaned.pdb_2024_06_17__22_47_40_V2_BS398_MIN1_/SDF/sdf_db.sdf

> <Rec_index>
1

>  <PLIF_raw>
[[12,12,12,12,27,28,33,34,32,31],[826,829,826,829,823,823,823,823,823,823],[54,54,54,54,54,54,54,54,54,54],[2,2,7,7,10,10,10,10,10,10],[7.6,1.7,5.271507425,3.011532557,0.7,0.7,0.7,0.7,0.7,0.7]]

> <FP:PLIF>
6 19 1 16 2

>  <PLIF_ligidx>
[[12,12],[12,12],[12,12],12,[27,28,33,34,32,31]]

$$$$
411
  MOE2022           3D

 56 59  0  0  1  0  0  0  0  0999 V2000
    3.4300   17.7600   19.2590 O   0  0  0  0  0  0  0  0  0  0  0  0
    2.5050   17.3770   18.5280 C   0  0  0  0  0  0  0  0  0  0  0  0
    1.3810   16.6050   18.9820 C   0  0  0  0  0  0  0  0  0  0  0  0
    2.5520   17.6950   17.1650 N   0  0  0  0  0  0  0  0  0  0  0  0
    0.4360   16.2130   18.0800 C   0  0  0  0  0  0  0  0  0  0  0  0
    1.5850   17.1810   16.2830 C   0  0  0  0  0  0  0  0  0  0  0  0
    0.5710   16.5040   16.7410 N   0  0  0  0  0  0  0  0  0  0  0  0
    1.7790   17.3780   14.8560 C   0  0  0  0  0  0  0  0  0  0  0  0
    3.6690   18.5480   16.6720 C   0  0  0  0  0  0  0  0  0  0  0  0
    1.2800   16.2450   20.4570 C   0  0  0  0  0  0  0  0  0  0  0  0
   -0.7860   15.4040   18.4640 C   0  0  0  0  0  0  0  0  0  0  0  0
    3.6280   20.0270   17.1030 C   0  0  1  0  0  0  0  0  0  0  0  0
    5.0110   20.5290   17.3920 C   0  0  0  0  0  0  0  0  0  0  0  0
    1.0950   18.3870   14.1630 C   0  0  0  0  0  0  0  0  0  0  0  0
    3.2100   20.9710   15.9630 C   0  0  0  0  0  0  0  0  0  0  0  0
    1.3370   18.6030   12.8100 C   0  0  0  0  0  0  0  0  0  0  0  0
    2.2730   17.8120   12.1360 C   0  0  0  0  0  0  0  0  0  0  0  0
    2.4970   18.0770   10.8080 O   0  0  0  0  0  0  0  0  0  0  0  0
    2.6770   16.5660   14.1400 C   0  0  0  0  0  0  0  0  0  0  0  0
    3.3060   15.5360   14.7720 O   0  0  0  0  0  0  0  0  0  0  0  0
    4.3950   21.7480   15.5540 O   0  0  0  0  0  0  0  0  0  0  0  0
    3.8150   18.0870   10.1930 C   0  0  0  0  0  0  0  0  0  0  0  0
    2.9440   16.7820   12.7920 C   0  0  0  0  0  0  0  0  0  0  0  0
    5.3850   21.4830   16.4630 C   0  0  0  0  0  0  0  0  0  0  0  0
    4.0490   16.9130    9.2240 C   0  0  1  0  0  0  0  0  0  0  0  0
    6.6380   22.0840   16.4880 C   0  0  0  0  0  0  0  0  0  0  0  0
    4.6880   17.4000    8.0160 O   0  0  0  0  0  0  0  0  0  0  0  0
    4.8690   15.7910    9.8400 C   0  0  0  0  0  0  0  0  0  0  0  0
    6.0690   16.0310   10.1120 O   0  0  0  0  0  0  0  0  0  0  0  0
    4.2940   14.7110   10.0900 O   0  5  0  0  0  0  0  0  0  0  0  0
    7.5080   21.6870   17.5000 C   0  0  0  0  0  0  0  0  0  0  0  0
    8.7370   22.2480   17.5580 F   0  0  0  0  0  0  0  0  0  0  0  0
    7.1600   20.7330   18.4580 C   0  0  0  0  0  0  0  0  0  0  0  0
    5.8930   20.1480   18.4030 C   0  0  0  0  0  0  0  0  0  0  0  0
    4.5930   18.1370   17.0310 H   0  0  0  0  0  0  0  0  0  0  0  0
    3.8090   18.4930   15.6030 H   0  0  0  0  0  0  0  0  0  0  0  0
    0.5150   16.8300   20.9470 H   0  0  0  0  0  0  0  0  0  0  0  0
    1.0360   15.2000   20.5870 H   0  0  0  0  0  0  0  0  0  0  0  0
    2.2060   16.4090   20.9890 H   0  0  0  0  0  0  0  0  0  0  0  0
   -1.2600   15.7900   19.3560 H   0  0  0  0  0  0  0  0  0  0  0  0
   -1.5320   15.4090   17.6810 H   0  0  0  0  0  0  0  0  0  0  0  0
   -0.5240   14.3720   18.6500 H   0  0  0  0  0  0  0  0  0  0  0  0
    3.0020   20.1650   17.9840 H   0  0  0  0  0  0  0  0  0  0  0  0
    0.3940   18.9940   14.6750 H   0  0  0  0  0  0  0  0  0  0  0  0
    2.8230   20.4170   15.1070 H   0  0  0  0  0  0  0  0  0  0  0  0
    2.4490   21.6630   16.3240 H   0  0  0  0  0  0  0  0  0  0  0  0
    0.8210   19.3690   12.2910 H   0  0  0  0  0  0  0  0  0  0  0  0
    2.9160   15.3810   15.6560 H   0  0  0  0  0  0  0  0  0  0  0  0
    3.9010   19.0250    9.6430 H   0  0  0  0  0  0  0  0  0  0  0  0
    4.5740   18.0950   10.9710 H   0  0  0  0  0  0  0  0  0  0  0  0
    3.6300   16.1620   12.2770 H   0  0  0  0  0  0  0  0  0  0  0  0
    3.0850   16.5250    8.9240 H   0  0  0  0  0  0  0  0  0  0  0  0
    6.9160   22.8120   15.7710 H   0  0  0  0  0  0  0  0  0  0  0  0
    5.6350   17.5370    8.1890 H   0  0  0  0  0  0  0  0  0  0  0  0
    7.8480   20.4560   19.2150 H   0  0  0  0  0  0  0  0  0  0  0  0
    5.6080   19.4190   19.1170 H   0  0  0  0  0  0  0  0  0  0  0  0
  1  2  2  0  0  0  0
  2  3  1  0  0  0  0
  2  4  1  0  0  0  0
  3  5  2  0  0  0  0
  3 10  1  0  0  0  0
  4  6  1  0  0  0  0
  4  9  1  0  0  0  0
  5  7  1  0  0  0  0
  5 11  1  0  0  0  0
  6  7  2  0  0  0  0
  6  8  1  0  0  0  0
  8 14  1  0  0  0  0
  8 19  2  0  0  0  0
  9 12  1  0  0  0  0
  9 35  1  0  0  0  0
  9 36  1  0  0  0  0
 10 37  1  0  0  0  0
 10 38  1  0  0  0  0
 10 39  1  0  0  0  0
 11 40  1  0  0  0  0
 11 41  1  0  0  0  0
 11 42  1  0  0  0  0
 12 13  1  0  0  0  0
 12 15  1  0  0  0  0
 12 43  1  0  0  0  0
 13 24  1  0  0  0  0
 13 34  2  0  0  0  0
 14 16  2  0  0  0  0
 14 44  1  0  0  0  0
 15 21  1  0  0  0  0
 15 45  1  0  0  0  0
 15 46  1  0  0  0  0
 16 17  1  0  0  0  0
 16 47  1  0  0  0  0
 17 18  1  0  0  0  0
 17 23  2  0  0  0  0
 18 22  1  0  0  0  0
 19 20  1  0  0  0  0
 19 23  1  0  0  0  0
 20 48  1  0  0  0  0
 21 24  1  0  0  0  0
 22 25  1  0  0  0  0
 22 49  1  0  0  0  0
 22 50  1  0  0  0  0
 23 51  1  0  0  0  0
 24 26  2  0  0  0  0
 25 27  1  0  0  0  0
 25 28  1  0  0  0  0
 25 52  1  0  0  0  0
 26 31  1  0  0  0  0
 26 53  1  0  0  0  0
 27 54  1  0  0  0  0
 28 29  2  0  0  0  0
 28 30  1  0  0  0  0
 31 32  1  0  0  0  0
 31 33  2  0  0  0  0
 33 34  1  0  0  0  0
 33 55  1  0  0  0  0
 34 56  1  0  0  0  0
M  CHG  1  30  -1
M  END
> <rseq>
1

> <mseq>
412

> <S>
-6.402911

> <rmsd_refine>
1.142694

> <E_conf>
-53.91912

> <E_score1>
-14.2754

> <E_refine>
-36.58117

> <E_score2>
-6.402911

>  <$File>
outputs/pdb_4j58_cleaned.pdb_2024_06_17__22_47_40_V2_BS398_MIN1_/SDF/sdf_db.sdf

> <Rec_index>
1

>  <PLIF_raw>
[[27,29,29,29,2,4,6,7,5,3],[2222,823,823,829,954,954,954,954,954,954],[148,54,54,54,62,62,62,62,62,62],[3,2,7,7,10,10,10,10,10,10],[0.5,3.4,5.175053713,0.7005019726,1.5,1.5,1.5,1.5,1.5,1.5]]

> <FP:PLIF>
6 19 1 16 21 30 39

>  <PLIF_ligidx>
[29,29,[29,29],29,[2,4,6,7,5,3],[2,4,6,7,5,3],27]

$$$$
412
  MOE2022           3D

 59 63  0  0  1  0  0  0  0  0999 V2000
    7.5390   20.6890   18.4740 C   0  0  0  0  0  0  0  0  0  0  0  0
    7.1410   21.1810   17.2400 C   0  0  0  0  0  0  0  0  0  0  0  0
    6.6820   19.8690   19.1940 C   0  0  0  0  0  0  0  0  0  0  0  0
    5.4350   19.5220   18.6760 C   0  0  0  0  0  0  0  0  0  0  0  0
    5.8880   20.8420   16.7320 C   0  0  0  0  0  0  0  0  0  0  0  0
    5.5620   21.4150   15.5350 O   0  0  0  0  0  0  0  0  0  0  0  0
    5.0110   19.9780   17.4230 C   0  0  0  0  0  0  0  0  0  0  0  0
    3.6070   19.5710   16.9100 C   0  0  2  0  0  0  0  0  0  0  0  0
    3.2030   18.1550   17.1930 N   0  0  0  0  0  0  0  0  0  0  0  0
    3.4250   19.7320   15.4590 N   0  0  0  0  0  0  0  0  0  0  0  0
    2.5250   17.6890   15.9640 C   0  0  2  0  0  0  0  0  0  0  0  0
    2.8760   18.7360   14.9540 C   0  0  0  0  0  0  0  0  0  0  0  0
    2.5220   18.6060   13.4800 C   0  0  2  0  0  0  0  0  0  0  0  0
    1.0000   17.5380   16.1110 C   0  0  0  0  0  0  0  0  0  0  0  0
    2.7890   17.2210   12.8870 C   0  0  0  0  0  0  0  0  0  0  0  0
    2.3570   18.0370   18.4120 C   0  0  0  0  0  0  0  0  0  0  0  0
    3.2580   19.5600   12.5280 C   0  0  0  0  0  0  0  0  0  0  0  0
    2.9940   17.4630   11.3890 C   0  0  1  0  0  0  0  0  0  0  0  0
    1.5250   16.8220   18.4430 N   0  0  0  0  0  0  0  0  0  0  0  0
    3.4690   18.8320   11.2930 O   0  0  0  0  0  0  0  0  0  0  0  0
    3.9110   16.4560   10.7140 C   0  0  0  0  0  0  0  0  0  0  0  0
    1.3530   16.1200   19.6280 C   0  0  0  0  0  0  0  0  0  0  0  0
    3.4670   15.1770   10.7340 O   0  0  0  0  0  0  0  0  0  0  0  0
    0.6540   16.6120   17.2750 C   0  0  0  0  0  0  0  0  0  0  0  0
    4.9810   16.7350   10.2180 O   0  0  0  0  0  0  0  0  0  0  0  0
    4.1200   14.0180   10.3320 C   0  0  0  0  0  0  0  0  0  0  0  0
    5.5000   13.8590   10.4680 C   0  0  0  0  0  0  0  0  0  0  0  0
    6.0570   12.6540   10.0600 C   0  0  0  0  0  0  0  0  0  0  0  0
    7.3900   12.4750   10.1810 F   0  0  0  0  0  0  0  0  0  0  0  0
    5.2910   11.6190    9.5310 C   0  0  0  0  0  0  0  0  0  0  0  0
    3.9150   11.7970    9.4080 C   0  0  0  0  0  0  0  0  0  0  0  0
    3.3250   12.9950    9.8110 C   0  0  0  0  0  0  0  0  0  0  0  0
    1.9000   16.4530   20.6810 O   0  0  0  0  0  0  0  0  0  0  0  0
    0.5290   15.0290   19.5780 N   0  0  0  0  0  0  0  0  0  0  0  0
    8.4900   20.9420   18.8680 H   0  0  0  0  0  0  0  0  0  0  0  0
    7.7850   21.8190   16.6910 H   0  0  0  0  0  0  0  0  0  0  0  0
    6.9820   19.5060   20.1420 H   0  0  0  0  0  0  0  0  0  0  0  0
    4.8100   18.8990   19.2560 H   0  0  0  0  0  0  0  0  0  0  0  0
    4.6730   21.1010   15.2650 H   0  0  0  0  0  0  0  0  0  0  0  0
    2.8850   20.2280   17.3780 H   0  0  0  0  0  0  0  0  0  0  0  0
    2.9570   16.7370   15.6860 H   0  0  0  0  0  0  0  0  0  0  0  0
    1.4640   18.8020   13.3670 H   0  0  0  0  0  0  0  0  0  0  0  0
    0.5610   18.5200   16.3020 H   0  0  0  0  0  0  0  0  0  0  0  0
    0.5670   17.1400   15.1930 H   0  0  0  0  0  0  0  0  0  0  0  0
    3.7100   16.8220   13.3090 H   0  0  0  0  0  0  0  0  0  0  0  0
    1.9720   16.5230   13.0710 H   0  0  0  0  0  0  0  0  0  0  0  0
    2.9890   18.0720   19.2850 H   0  0  0  0  0  0  0  0  0  0  0  0
    1.7070   18.8990   18.4780 H   0  0  0  0  0  0  0  0  0  0  0  0
    2.6740   20.4590   12.3270 H   0  0  0  0  0  0  0  0  0  0  0  0
    4.2330   19.8390   12.9220 H   0  0  0  0  0  0  0  0  0  0  0  0
    2.0250   17.4320   10.9080 H   0  0  0  0  0  0  0  0  0  0  0  0
   -0.3830   16.7480   17.5510 H   0  0  0  0  0  0  0  0  0  0  0  0
    0.7440   15.5910   16.9360 H   0  0  0  0  0  0  0  0  0  0  0  0
    6.1120   14.6210   10.8730 H   0  0  0  0  0  0  0  0  0  0  0  0
    5.7480   10.7120    9.2290 H   0  0  0  0  0  0  0  0  0  0  0  0
    3.3150   11.0200    9.0080 H   0  0  0  0  0  0  0  0  0  0  0  0
    2.2780   13.1280    9.7210 H   0  0  0  0  0  0  0  0  0  0  0  0
   -0.0800   14.2010   19.6270 H   0  0  0  0  0  0  0  0  0  0  0  0
    0.3950   15.0260   18.5580 H   0  0  0  0  0  0  0  0  0  0  0  0
  1  2  1  0  0  0  0
  1  3  2  0  0  0  0
  1 35  1  0  0  0  0
  2  5  2  0  0  0  0
  2 36  1  0  0  0  0
  3  4  1  0  0  0  0
  3 37  1  0  0  0  0
  4  7  2  0  0  0  0
  4 38  1  0  0  0  0
  5  6  1  0  0  0  0
  5  7  1  0  0  0  0
  6 39  1  0  0  0  0
  7  8  1  0  0  0  0
  8  9  1  0  0  0  0
  8 10  1  0  0  0  0
  8 40  1  0  0  0  0
  9 11  1  0  0  0  0
  9 16  1  0  0  0  0
 10 12  2  0  0  0  0
 11 12  1  0  0  0  0
 11 14  1  0  0  0  0
 11 41  1  0  0  0  0
 12 13  1  0  0  0  0
 13 15  1  0  0  0  0
 13 17  1  0  0  0  0
 13 42  1  0  0  0  0
 14 24  1  0  0  0  0
 14 43  1  0  0  0  0
 14 44  1  0  0  0  0
 15 18  1  0  0  0  0
 15 45  1  0  0  0  0
 15 46  1  0  0  0  0
 16 19  1  0  0  0  0
 16 47  1  0  0  0  0
 16 48  1  0  0  0  0
 17 20  1  0  0  0  0
 17 49  1  0  0  0  0
 17 50  1  0  0  0  0
 18 20  1  0  0  0  0
 18 21  1  0  0  0  0
 18 51  1  0  0  0  0
 19 22  1  0  0  0  0
 19 24  1  0  0  0  0
 21 23  1  0  0  0  0
 21 25  2  0  0  0  0
 22 33  2  0  0  0  0
 22 34  1  0  0  0  0
 23 26  1  0  0  0  0
 24 52  1  0  0  0  0
 24 53  1  0  0  0  0
 26 27  2  0  0  0  0
 26 32  1  0  0  0  0
 27 28  1  0  0  0  0
 27 54  1  0  0  0  0
 28 29  1  0  0  0  0
 28 30  2  0  0  0  0
 30 31  1  0  0  0  0
 30 55  1  0  0  0  0
 31 32  2  0  0  0  0
 31 56  1  0  0  0  0
 32 57  1  0  0  0  0
 34 58  1  0  0  0  0
 34 59  1  0  0  0  0
M  END
> <rseq>
1

> <mseq>
413

> <S>
-6.771218

> <rmsd_refine>
1.740517

> <E_conf>
-56.96763

> <E_score1>
-10.20894

> <E_refine>
-41.33661

> <E_score2>
-6.771218

>  <$File>
outputs/pdb_4j58_cleaned.pdb_2024_06_17__22_47_40_V2_BS398_MIN1_/SDF/sdf_db.sdf

> <Rec_index>
1

>  <PLIF_raw>
[[9,25,26,27,28,30,31,32],[954,823,1057,1057,1057,1057,1057,1057],[62,54,70,70,70,70,70,70],[2,2,10,10,10,10,10,10],[2,1.4,0.7,0.7,0.7,0.7,0.7,0.7]]

> <FP:PLIF>
6 20 23 43

>  <PLIF_ligidx>
[25,9,9,[26,27,28,30,31,32]]

$$$$
413
  MOE2022           3D

 60 64  0  0  1  0  0  0  0  0999 V2000
    8.0090   21.1040   17.8230 C   0  0  0  0  0  0  0  0  0  0  0  0
    7.4570   21.6300   16.6640 C   0  0  0  0  0  0  0  0  0  0  0  0
    7.2870   20.1850   18.5740 C   0  0  0  0  0  0  0  0  0  0  0  0
    6.0180   19.7840   18.1630 C   0  0  0  0  0  0  0  0  0  0  0  0
    6.1850   21.2260   16.2600 C   0  0  0  0  0  0  0  0  0  0  0  0
    5.7000   21.8070   15.1230 O   0  0  0  0  0  0  0  0  0  0  0  0
    5.4400   20.2760   16.9860 C   0  0  0  0  0  0  0  0  0  0  0  0
    4.0170   19.8230   16.5800 C   0  0  2  0  0  0  0  0  0  0  0  0
    3.6370   18.4430   17.0000 N   0  0  0  0  0  0  0  0  0  0  0  0
    3.7290   19.8750   15.1400 N   0  0  0  0  0  0  0  0  0  0  0  0
    2.8500   17.8890   15.8790 C   0  0  2  0  0  0  0  0  0  0  0  0
    3.1120   18.8580   14.7650 C   0  0  0  0  0  0  0  0  0  0  0  0
    2.6180   18.6290   13.3440 C   0  0  2  0  0  0  0  0  0  0  0  0
    1.3450   17.7280   16.1830 C   0  0  0  0  0  0  0  0  0  0  0  0
    2.8550   17.2120   12.8160 C   0  0  0  0  0  0  0  0  0  0  0  0
    2.8970   18.4620   18.2760 C   0  0  0  0  0  0  0  0  0  0  0  0
    3.2320   19.5390   12.2710 C   0  0  0  0  0  0  0  0  0  0  0  0
    2.9820   17.3590   11.2960 C   0  0  1  0  0  0  0  0  0  0  0  0
    2.0890   17.2620   18.5170 N   0  0  0  0  0  0  0  0  0  0  0  0
    3.3830   18.7360   11.0760 O   0  0  0  0  0  0  0  0  0  0  0  0
    3.9260   16.3560   10.6530 C   0  0  0  0  0  0  0  0  0  0  0  0
    2.1740   16.5940   19.6860 C   0  0  0  0  0  0  0  0  0  0  0  0
    3.4890   15.0740   10.6590 O   0  0  0  0  0  0  0  0  0  0  0  0
    1.1240   16.9180   17.4660 C   0  0  0  0  0  0  0  0  0  0  0  0
    5.0150   16.6400   10.2050 O   0  0  0  0  0  0  0  0  0  0  0  0
    4.1570   13.9160   10.2770 C   0  0  0  0  0  0  0  0  0  0  0  0
    5.5370   13.7670   10.4320 C   0  0  0  0  0  0  0  0  0  0  0  0
    6.1070   12.5640   10.0370 C   0  0  0  0  0  0  0  0  0  0  0  0
    7.4400   12.3970   10.1710 F   0  0  0  0  0  0  0  0  0  0  0  0
    5.3550   11.5200    9.5070 C   0  0  0  0  0  0  0  0  0  0  0  0
    3.0610   16.8090   20.5090 O   0  0  0  0  0  0  0  0  0  0  0  0
    1.1040   15.5590   20.0350 C   0  0  0  0  0  0  0  0  0  0  0  0
    3.9790   11.6860    9.3660 C   0  0  0  0  0  0  0  0  0  0  0  0
    3.3760   12.8830    9.7540 C   0  0  0  0  0  0  0  0  0  0  0  0
    8.9760   21.4040   18.1370 H   0  0  0  0  0  0  0  0  0  0  0  0
    7.9990   22.3390   16.0920 H   0  0  0  0  0  0  0  0  0  0  0  0
    7.7060   19.7870   19.4620 H   0  0  0  0  0  0  0  0  0  0  0  0
    5.5040   19.0850   18.7640 H   0  0  0  0  0  0  0  0  0  0  0  0
    4.8140   21.4370   14.9240 H   0  0  0  0  0  0  0  0  0  0  0  0
    3.3240   20.5170   17.0390 H   0  0  0  0  0  0  0  0  0  0  0  0
    3.2670   16.9210   15.6340 H   0  0  0  0  0  0  0  0  0  0  0  0
    1.5500   18.8000   13.3250 H   0  0  0  0  0  0  0  0  0  0  0  0
    0.9020   18.7170   16.3150 H   0  0  0  0  0  0  0  0  0  0  0  0
    0.8420   17.2330   15.3520 H   0  0  0  0  0  0  0  0  0  0  0  0
    3.7910   16.8310   13.2150 H   0  0  0  0  0  0  0  0  0  0  0  0
    2.0470   16.5290   13.0820 H   0  0  0  0  0  0  0  0  0  0  0  0
    3.5880   18.6280   19.0880 H   0  0  0  0  0  0  0  0  0  0  0  0
    2.2370   19.3190   18.2800 H   0  0  0  0  0  0  0  0  0  0  0  0
    2.5910   20.3940   12.0540 H   0  0  0  0  0  0  0  0  0  0  0  0
    4.2200   19.8910   12.5610 H   0  0  0  0  0  0  0  0  0  0  0  0
    1.9970   17.2440   10.8620 H   0  0  0  0  0  0  0  0  0  0  0  0
    0.1110   17.0600   17.8170 H   0  0  0  0  0  0  0  0  0  0  0  0
    1.2170   15.8690   17.2280 H   0  0  0  0  0  0  0  0  0  0  0  0
    6.1380   14.5350   10.8410 H   0  0  0  0  0  0  0  0  0  0  0  0
    5.8220   10.6130    9.2180 H   0  0  0  0  0  0  0  0  0  0  0  0
    0.1290   16.0440   20.0800 H   0  0  0  0  0  0  0  0  0  0  0  0
    1.0800   14.7730   19.2840 H   0  0  0  0  0  0  0  0  0  0  0  0
    1.3290   15.1170   21.0050 H   0  0  0  0  0  0  0  0  0  0  0  0
    3.3890   10.9020    8.9670 H   0  0  0  0  0  0  0  0  0  0  0  0
    2.3290   13.0080    9.6510 H   0  0  0  0  0  0  0  0  0  0  0  0
  1  2  1  0  0  0  0
  1  3  2  0  0  0  0
  1 35  1  0  0  0  0
  2  5  2  0  0  0  0
  2 36  1  0  0  0  0
  3  4  1  0  0  0  0
  3 37  1  0  0  0  0
  4  7  2  0  0  0  0
  4 38  1  0  0  0  0
  5  6  1  0  0  0  0
  5  7  1  0  0  0  0
  6 39  1  0  0  0  0
  7  8  1  0  0  0  0
  8  9  1  0  0  0  0
  8 10  1  0  0  0  0
  8 40  1  0  0  0  0
  9 11  1  0  0  0  0
  9 16  1  0  0  0  0
 10 12  2  0  0  0  0
 11 12  1  0  0  0  0
 11 14  1  0  0  0  0
 11 41  1  0  0  0  0
 12 13  1  0  0  0  0
 13 15  1  0  0  0  0
 13 17  1  0  0  0  0
 13 42  1  0  0  0  0
 14 24  1  0  0  0  0
 14 43  1  0  0  0  0
 14 44  1  0  0  0  0
 15 18  1  0  0  0  0
 15 45  1  0  0  0  0
 15 46  1  0  0  0  0
 16 19  1  0  0  0  0
 16 47  1  0  0  0  0
 16 48  1  0  0  0  0
 17 20  1  0  0  0  0
 17 49  1  0  0  0  0
 17 50  1  0  0  0  0
 18 20  1  0  0  0  0
 18 21  1  0  0  0  0
 18 51  1  0  0  0  0
 19 22  1  0  0  0  0
 19 24  1  0  0  0  0
 21 23  1  0  0  0  0
 21 25  2  0  0  0  0
 22 31  2  0  0  0  0
 22 32  1  0  0  0  0
 23 26  1  0  0  0  0
 24 52  1  0  0  0  0
 24 53  1  0  0  0  0
 26 27  2  0  0  0  0
 26 34  1  0  0  0  0
 27 28  1  0  0  0  0
 27 54  1  0  0  0  0
 28 29  1  0  0  0  0
 28 30  2  0  0  0  0
 30 33  1  0  0  0  0
 30 55  1  0  0  0  0
 32 56  1  0  0  0  0
 32 57  1  0  0  0  0
 32 58  1  0  0  0  0
 33 34  2  0  0  0  0
 33 59  1  0  0  0  0
 34 60  1  0  0  0  0
M  END
> <rseq>
1

> <mseq>
414

> <S>
-6.906909

> <rmsd_refine>
1.571698

> <E_conf>
-33.88462

> <E_score1>
-10.21132

> <E_refine>
-41.58192

> <E_score2>
-6.906909

>  <$File>
outputs/pdb_4j58_cleaned.pdb_2024_06_17__22_47_40_V2_BS398_MIN1_/SDF/sdf_db.sdf

> <Rec_index>
1

>  <PLIF_raw>
[[9,25,26,27,28,30,33,34],[954,823,1057,1057,1057,1057,1057,1057],[62,54,70,70,70,70,70,70],[2,2,10,10,10,10,10,10],[2.2,1.5,0.7,0.7,0.7,0.7,0.7,0.7]]

> <FP:PLIF>
6 19 20 23 43

>  <PLIF_ligidx>
[25,25,9,9,[26,27,28,30,33,34]]

$$$$
414
  MOE2022           3D

 62 65  0  0  1  0  0  0  0  0999 V2000
    3.5440   17.6920   19.6220 O   0  0  0  0  0  0  0  0  0  0  0  0
    2.6190   17.3360   18.8820 C   0  0  0  0  0  0  0  0  0  0  0  0
    1.5140   16.5230   19.3070 C   0  0  0  0  0  0  0  0  0  0  0  0
    2.6440   17.7290   17.5390 N   0  0  0  0  0  0  0  0  0  0  0  0
    0.5630   16.1650   18.3990 C   0  0  0  0  0  0  0  0  0  0  0  0
    1.6620   17.2640   16.6470 C   0  0  0  0  0  0  0  0  0  0  0  0
    0.6710   16.5400   17.0790 N   0  0  0  0  0  0  0  0  0  0  0  0
    1.8070   17.5780   15.2370 C   0  0  0  0  0  0  0  0  0  0  0  0
    3.7250   18.6500   17.0840 C   0  0  0  0  0  0  0  0  0  0  0  0
    1.4370   16.0880   20.7630 C   0  0  0  0  0  0  0  0  0  0  0  0
   -0.6410   15.3150   18.7540 C   0  0  0  0  0  0  0  0  0  0  0  0
    3.4730   20.1500   17.3330 C   0  0  1  0  0  0  0  0  0  0  0  0
    4.7030   20.8230   17.8670 C   0  0  0  0  0  0  0  0  0  0  0  0
    1.0780   18.6260   14.6550 C   0  0  0  0  0  0  0  0  0  0  0  0
    3.2400   20.9540   16.0410 C   0  0  0  0  0  0  0  0  0  0  0  0
    1.2550   18.9520   13.3160 C   0  0  0  0  0  0  0  0  0  0  0  0
    2.1710   18.2350   12.5410 C   0  0  0  0  0  0  0  0  0  0  0  0
    2.3150   18.6050   11.2260 O   0  0  0  0  0  0  0  0  0  0  0  0
    2.6820   16.8400   14.4200 C   0  0  0  0  0  0  0  0  0  0  0  0
    3.3410   15.7620   14.9360 O   0  0  0  0  0  0  0  0  0  0  0  0
    4.3530   21.9050   15.8810 O   0  0  0  0  0  0  0  0  0  0  0  0
    3.5650   18.6320   10.4890 C   0  0  0  0  0  0  0  0  0  0  0  0
    2.8910   17.1700   13.0840 C   0  0  0  0  0  0  0  0  0  0  0  0
    5.1480   21.7910   16.9890 C   0  0  0  0  0  0  0  0  0  0  0  0
    6.2900   22.5440   17.2400 C   0  0  0  0  0  0  0  0  0  0  0  0
    6.9970   22.3030   18.4160 C   0  0  0  0  0  0  0  0  0  0  0  0
    3.5080   17.8030    9.1960 C   0  0  1  0  0  0  0  0  0  0  0  0
    6.5560   21.3270   19.3160 C   0  0  0  0  0  0  0  0  0  0  0  0
    5.4040   20.5860   19.0450 C   0  0  0  0  0  0  0  0  0  0  0  0
    4.4120   18.3420    8.2490 O   0  0  0  0  0  0  0  0  0  0  0  0
    3.7960   16.3100    9.4400 C   0  0  0  0  0  0  0  0  0  0  0  0
    5.2770   15.9940    9.7150 C   0  0  0  0  0  0  0  0  0  0  0  0
    6.0090   15.7680    8.5100 O   0  0  0  0  0  0  0  0  0  0  0  0
    5.4340   14.8500   10.5500 O   0  0  0  0  0  0  0  0  0  0  0  0
    4.6400   18.4030   17.5920 H   0  0  0  0  0  0  0  0  0  0  0  0
    3.9970   18.4840   16.0520 H   0  0  0  0  0  0  0  0  0  0  0  0
    0.6790   16.6480   21.2940 H   0  0  0  0  0  0  0  0  0  0  0  0
    1.1960   15.0380   20.8440 H   0  0  0  0  0  0  0  0  0  0  0  0
    2.3710   16.2260   21.2890 H   0  0  0  0  0  0  0  0  0  0  0  0
   -1.1120   15.6480   19.6680 H   0  0  0  0  0  0  0  0  0  0  0  0
   -1.3940   15.3460   17.9790 H   0  0  0  0  0  0  0  0  0  0  0  0
   -0.3580   14.2790   18.8840 H   0  0  0  0  0  0  0  0  0  0  0  0
    2.6520   20.2910   18.0350 H   0  0  0  0  0  0  0  0  0  0  0  0
    0.3900   19.1770   15.2440 H   0  0  0  0  0  0  0  0  0  0  0  0
    3.2040   20.3020   15.1690 H   0  0  0  0  0  0  0  0  0  0  0  0
    2.3070   21.5130   16.1200 H   0  0  0  0  0  0  0  0  0  0  0  0
    0.7030   19.7450   12.8820 H   0  0  0  0  0  0  0  0  0  0  0  0
    2.9940   15.5370   15.8240 H   0  0  0  0  0  0  0  0  0  0  0  0
    3.7630   19.6730   10.2290 H   0  0  0  0  0  0  0  0  0  0  0  0
    4.3760   18.2830   11.1240 H   0  0  0  0  0  0  0  0  0  0  0  0
    3.5660   16.6080   12.4950 H   0  0  0  0  0  0  0  0  0  0  0  0
    6.6120   23.2820   16.5510 H   0  0  0  0  0  0  0  0  0  0  0  0
    7.8730   22.8580   18.6290 H   0  0  0  0  0  0  0  0  0  0  0  0
    2.5020   17.8950    8.7840 H   0  0  0  0  0  0  0  0  0  0  0  0
    7.1030   21.1460   20.2060 H   0  0  0  0  0  0  0  0  0  0  0  0
    5.0730   19.8470   19.7270 H   0  0  0  0  0  0  0  0  0  0  0  0
    5.2840   18.4120    8.6490 H   0  0  0  0  0  0  0  0  0  0  0  0
    3.1940   15.9830   10.2870 H   0  0  0  0  0  0  0  0  0  0  0  0
    3.4700   15.7390    8.5690 H   0  0  0  0  0  0  0  0  0  0  0  0
    5.7430   16.8230   10.2270 H   0  0  0  0  0  0  0  0  0  0  0  0
    5.8500   16.4940    7.8840 H   0  0  0  0  0  0  0  0  0  0  0  0
    5.0330   14.0740   10.1250 H   0  0  0  0  0  0  0  0  0  0  0  0
  1  2  2  0  0  0  0
  2  3  1  0  0  0  0
  2  4  1  0  0  0  0
  3  5  2  0  0  0  0
  3 10  1  0  0  0  0
  4  6  1  0  0  0  0
  4  9  1  0  0  0  0
  5  7  1  0  0  0  0
  5 11  1  0  0  0  0
  6  7  2  0  0  0  0
  6  8  1  0  0  0  0
  8 14  1  0  0  0  0
  8 19  2  0  0  0  0
  9 12  1  0  0  0  0
  9 35  1  0  0  0  0
  9 36  1  0  0  0  0
 10 37  1  0  0  0  0
 10 38  1  0  0  0  0
 10 39  1  0  0  0  0
 11 40  1  0  0  0  0
 11 41  1  0  0  0  0
 11 42  1  0  0  0  0
 12 13  1  0  0  0  0
 12 15  1  0  0  0  0
 12 43  1  0  0  0  0
 13 24  2  0  0  0  0
 13 29  1  0  0  0  0
 14 16  2  0  0  0  0
 14 44  1  0  0  0  0
 15 21  1  0  0  0  0
 15 45  1  0  0  0  0
 15 46  1  0  0  0  0
 16 17  1  0  0  0  0
 16 47  1  0  0  0  0
 17 18  1  0  0  0  0
 17 23  2  0  0  0  0
 18 22  1  0  0  0  0
 19 20  1  0  0  0  0
 19 23  1  0  0  0  0
 20 48  1  0  0  0  0
 21 24  1  0  0  0  0
 22 27  1  0  0  0  0
 22 49  1  0  0  0  0
 22 50  1  0  0  0  0
 23 51  1  0  0  0  0
 24 25  1  0  0  0  0
 25 26  2  0  0  0  0
 25 52  1  0  0  0  0
 26 28  1  0  0  0  0
 26 53  1  0  0  0  0
 27 30  1  0  0  0  0
 27 31  1  0  0  0  0
 27 54  1  0  0  0  0
 28 29  2  0  0  0  0
 28 55  1  0  0  0  0
 29 56  1  0  0  0  0
 30 57  1  0  0  0  0
 31 32  1  0  0  0  0
 31 58  1  0  0  0  0
 31 59  1  0  0  0  0
 32 33  1  0  0  0  0
 32 34  1  0  0  0  0
 32 60  1  0  0  0  0
 33 61  1  0  0  0  0
 34 62  1  0  0  0  0
M  END
> <rseq>
1

> <mseq>
415

> <S>
-6.773048

> <rmsd_refine>
0.7675311

> <E_conf>
-86.69194

> <E_score1>
-13.42771

> <E_refine>
-34.7606

> <E_score2>
-6.773048

>  <$File>
outputs/pdb_4j58_cleaned.pdb_2024_06_17__22_47_40_V2_BS398_MIN1_/SDF/sdf_db.sdf

> <Rec_index>
1

>  <PLIF_raw>
[[30,2,4,6,7,5,3],[2222,954,954,954,954,954,954],[148,62,62,62,62,62,62],[3,10,10,10,10,10,10],[1.4,0.5,0.5,0.5,0.5,0.5,0.5]]

> <FP:PLIF>
21 39

>  <PLIF_ligidx>
[[2,4,6,7,5,3],30]

$$$$
415
  MOE2022           3D

 53 55  0  0  1  0  0  0  0  0999 V2000
    7.9170   20.5520   18.2270 C   0  0  0  0  0  0  0  0  0  0  0  0
    7.9840   21.4400   17.1600 C   0  0  0  0  0  0  0  0  0  0  0  0
    6.7090   19.9400   18.5500 C   0  0  0  0  0  0  0  0  0  0  0  0
    5.5600   20.2080   17.8040 C   0  0  0  0  0  0  0  0  0  0  0  0
    5.6350   21.1020   16.7360 C   0  0  0  0  0  0  0  0  0  0  0  0
    6.8420   21.7160   16.4150 C   0  0  0  0  0  0  0  0  0  0  0  0
    4.2410   19.5360   18.1540 C   0  0  0  0  0  0  0  0  0  0  0  0
    3.7370   18.5020   17.1440 C   0  0  0  0  0  0  0  0  0  0  0  0
    2.5560   17.7520   17.3600 N   0  0  0  0  0  0  0  0  0  0  0  0
    2.2510   17.1440   18.6070 C   0  0  0  0  0  0  0  0  0  0  0  0
    1.6890   17.5730   16.1760 C   0  0  2  0  0  0  0  0  0  0  0  0
    4.3010   18.3610   16.0750 O   0  0  0  0  0  0  0  0  0  0  0  0
    0.3110   18.2010   16.4320 C   0  0  1  0  0  0  0  0  0  0  0  0
    0.9870   16.4440   18.9240 C   0  0  0  0  0  0  0  0  0  0  0  0
    1.6900   16.1320   15.6010 C   0  0  0  0  0  0  0  0  0  0  0  0
    0.9340   15.6780   19.8800 O   0  0  0  0  0  0  0  0  0  0  0  0
    3.1360   17.1530   19.4530 O   0  0  0  0  0  0  0  0  0  0  0  0
   -0.2760   18.6510   15.1850 O   0  0  0  0  0  0  0  0  0  0  0  0
   -0.6390   17.3000   17.1910 C   0  0  0  0  0  0  0  0  0  0  0  0
    1.5960   16.0620   14.0720 C   0  0  0  0  0  0  0  0  0  0  0  0
    2.8920   16.2430   13.4620 O   0  0  0  0  0  0  0  0  0  0  0  0
    3.1610   16.8830   12.2580 C   0  0  0  0  0  0  0  0  0  0  0  0
   -1.8010   17.1700   16.8660 O   0  0  0  0  0  0  0  0  0  0  0  0
   -0.2370   16.5560   18.2750 N   0  0  0  0  0  0  0  0  0  0  0  0
    3.8920   16.1950   11.2880 C   0  0  0  0  0  0  0  0  0  0  0  0
    2.8020   18.2150   12.0250 C   0  0  0  0  0  0  0  0  0  0  0  0
    4.1340   14.8570   11.4650 O   0  0  0  0  0  0  0  0  0  0  0  0
    4.3800   16.8510   10.1440 C   0  0  0  0  0  0  0  0  0  0  0  0
    5.3260   16.2150    9.2340 C   0  0  0  0  0  0  0  0  0  0  0  0
    3.9800   18.1780    9.9220 C   0  0  0  0  0  0  0  0  0  0  0  0
    6.3750   15.6970    9.7100 O   0  5  0  0  0  0  0  0  0  0  0  0
    5.1180   16.2470    7.9920 O   0  0  0  0  0  0  0  0  0  0  0  0
    2.0880   18.9320   12.9430 O   0  0  0  0  0  0  0  0  0  0  0  0
    3.1910   18.8540   10.8480 C   0  0  0  0  0  0  0  0  0  0  0  0
    8.7870   20.3400   18.7950 H   0  0  0  0  0  0  0  0  0  0  0  0
    8.9040   21.9060   16.9150 H   0  0  0  0  0  0  0  0  0  0  0  0
    6.6700   19.2650   19.3640 H   0  0  0  0  0  0  0  0  0  0  0  0
    4.7700   21.3150   16.1630 H   0  0  0  0  0  0  0  0  0  0  0  0
    6.8920   22.3960   15.6040 H   0  0  0  0  0  0  0  0  0  0  0  0
    4.3330   19.1270   19.1460 H   0  0  0  0  0  0  0  0  0  0  0  0
    3.4810   20.2970   18.2550 H   0  0  0  0  0  0  0  0  0  0  0  0
    2.1000   18.1880   15.3880 H   0  0  0  0  0  0  0  0  0  0  0  0
    0.4640   19.0940   17.0250 H   0  0  0  0  0  0  0  0  0  0  0  0
    2.6210   15.6410   15.8910 H   0  0  0  0  0  0  0  0  0  0  0  0
    0.8700   15.5510   16.0170 H   0  0  0  0  0  0  0  0  0  0  0  0
   -1.1990   18.9230   15.3300 H   0  0  0  0  0  0  0  0  0  0  0  0
    1.2370   15.0720   13.7880 H   0  0  0  0  0  0  0  0  0  0  0  0
    0.8900   16.8020   13.6970 H   0  0  0  0  0  0  0  0  0  0  0  0
   -0.9840   15.9690   18.6800 H   0  0  0  0  0  0  0  0  0  0  0  0
    3.7470   14.5500   12.3080 H   0  0  0  0  0  0  0  0  0  0  0  0
    4.2990   18.6780    9.0430 H   0  0  0  0  0  0  0  0  0  0  0  0
    1.8940   19.8270   12.6050 H   0  0  0  0  0  0  0  0  0  0  0  0
    2.9040   19.8570   10.6650 H   0  0  0  0  0  0  0  0  0  0  0  0
  1  2  2  0  0  0  0
  1  3  1  0  0  0  0
  1 35  1  0  0  0  0
  2  6  1  0  0  0  0
  2 36  1  0  0  0  0
  3  4  2  0  0  0  0
  3 37  1  0  0  0  0
  4  5  1  0  0  0  0
  4  7  1  0  0  0  0
  5  6  2  0  0  0  0
  5 38  1  0  0  0  0
  6 39  1  0  0  0  0
  7  8  1  0  0  0  0
  7 40  1  0  0  0  0
  7 41  1  0  0  0  0
  8  9  1  0  0  0  0
  8 12  2  0  0  0  0
  9 10  1  0  0  0  0
  9 11  1  0  0  0  0
 10 14  1  0  0  0  0
 10 17  2  0  0  0  0
 11 13  1  0  0  0  0
 11 15  1  0  0  0  0
 11 42  1  0  0  0  0
 13 18  1  0  0  0  0
 13 19  1  0  0  0  0
 13 43  1  0  0  0  0
 14 16  2  0  0  0  0
 14 24  1  0  0  0  0
 15 20  1  0  0  0  0
 15 44  1  0  0  0  0
 15 45  1  0  0  0  0
 18 46  1  0  0  0  0
 19 23  2  0  0  0  0
 19 24  1  0  0  0  0
 20 21  1  0  0  0  0
 20 47  1  0  0  0  0
 20 48  1  0  0  0  0
 21 22  1  0  0  0  0
 22 25  1  0  0  0  0
 22 26  2  0  0  0  0
 24 49  1  0  0  0  0
 25 27  1  0  0  0  0
 25 28  2  0  0  0  0
 26 33  1  0  0  0  0
 26 34  1  0  0  0  0
 27 50  1  0  0  0  0
 28 29  1  0  0  0  0
 28 30  1  0  0  0  0
 29 31  1  0  0  0  0
 29 32  2  0  0  0  0
 30 34  2  0  0  0  0
 30 51  1  0  0  0  0
 33 52  1  0  0  0  0
 34 53  1  0  0  0  0
M  CHG  1  31  -1
M  END
> <rseq>
1

> <mseq>
416

> <S>
-6.578316

> <rmsd_refine>
1.421277

> <E_conf>
-47.84892

> <E_score1>
-10.37323

> <E_refine>
-38.55658

> <E_score2>
-6.578316

>  <$File>
outputs/pdb_4j58_cleaned.pdb_2024_06_17__22_47_40_V2_BS398_MIN1_/SDF/sdf_db.sdf

> <Rec_index>
1

>  <PLIF_raw>
[[31,31],[823,823],[54,54],[2,7],[2.6,2.379155293]]

> <FP:PLIF>
6 19 1

>  <PLIF_ligidx>
[31,31,31]

$$$$
416
  MOE2022           3D

 64 67  0  0  1  0  0  0  0  0999 V2000
    7.1460   21.0690   19.4040 C   0  0  0  0  0  0  0  0  0  0  0  0
    6.3620   20.0070   18.9700 C   0  0  0  0  0  0  0  0  0  0  0  0
    5.1120   20.2590   18.4070 C   0  0  0  0  0  0  0  0  0  0  0  0
    4.3940   19.1740   17.9350 O   0  0  0  0  0  0  0  0  0  0  0  0
    3.2650   19.2100   16.9980 C   0  0  1  0  0  0  0  0  0  0  0  0
    4.6260   21.5660   18.3120 C   0  0  0  0  0  0  0  0  0  0  0  0
    6.6780   22.3750   19.2900 C   0  0  0  0  0  0  0  0  0  0  0  0
    5.4170   22.6220   18.7510 C   0  0  0  0  0  0  0  0  0  0  0  0
    3.7140   19.5910   15.5850 C   0  0  0  0  0  0  0  0  0  0  0  0
    4.4740   20.5480   15.4350 O   0  0  0  0  0  0  0  0  0  0  0  0
    2.4910   17.8840   17.0980 C   0  0  2  0  0  0  0  0  0  0  0  0
    3.2100   18.9450   14.5060 N   0  0  0  0  0  0  0  0  0  0  0  0
    1.5140   17.6780   15.9180 C   0  0  2  0  0  0  0  0  0  0  0  0
    2.3690   17.7270   14.6200 C   0  0  1  0  0  0  0  0  0  0  0  0
    1.8160   17.8410   18.3470 O   0  0  0  0  0  0  0  0  0  0  0  0
    3.4440   19.4820   13.1440 C   0  0  0  0  0  0  0  0  0  0  0  0
    0.4800   18.7430   15.8910 N   0  0  0  0  0  0  0  0  0  0  0  0
    0.8600   16.2840   16.0730 C   0  0  0  0  0  0  0  0  0  0  0  0
   -0.2020   16.0590   15.1660 O   0  0  0  0  0  0  0  0  0  0  0  0
    1.5400   17.5870   13.4120 O   0  0  0  0  0  0  0  0  0  0  0  0
    1.6520   16.4060   12.5220 C   0  0  2  0  0  0  0  0  0  0  0  0
    3.0660   15.7680   12.4680 C   0  0  0  0  0  0  0  0  0  0  0  0
    1.1920   16.8020   11.1410 C   0  0  0  0  0  0  0  0  0  0  0  0
    0.2740   16.2430   10.5410 O   0  0  0  0  0  0  0  0  0  0  0  0
    3.4360   15.0330   11.1520 C   0  0  2  0  0  0  0  0  0  0  0  0
    2.0800   17.5480   10.4720 O   0  0  0  0  0  0  0  0  0  0  0  0
    2.8140   16.8840    9.4250 C   0  0  1  0  0  0  0  0  0  0  0  0
    4.4740   14.1290   11.4680 O   0  0  0  0  0  0  0  0  0  0  0  0
    3.3830   17.9150    8.4400 C   0  0  0  0  0  0  0  0  0  0  0  0
    4.1760   17.2380    7.3480 C   0  0  0  0  0  0  0  0  0  0  0  0
    3.9300   15.9830   10.0190 C   0  0  2  0  0  0  0  0  0  0  0  0
    3.9850   17.4860    6.1920 O   0  0  0  0  0  0  0  0  0  0  0  0
    5.1620   16.1740    7.7700 C   0  0  0  0  0  0  0  0  0  0  0  0
    4.5800   15.2250    8.8340 C   0  0  0  0  0  0  0  0  0  0  0  0
    8.1050   20.8870   19.8140 H   0  0  0  0  0  0  0  0  0  0  0  0
    6.7200   19.0160   19.0560 H   0  0  0  0  0  0  0  0  0  0  0  0
    2.5910   19.9840   17.3370 H   0  0  0  0  0  0  0  0  0  0  0  0
    3.6710   21.7640   17.9020 H   0  0  0  0  0  0  0  0  0  0  0  0
    7.2810   23.1810   19.6150 H   0  0  0  0  0  0  0  0  0  0  0  0
    5.0630   23.6170   18.6690 H   0  0  0  0  0  0  0  0  0  0  0  0
    3.2240   17.0770   17.0780 H   0  0  0  0  0  0  0  0  0  0  0  0
    3.0390   16.8800   14.6620 H   0  0  0  0  0  0  0  0  0  0  0  0
    2.4200   18.1360   19.0350 H   0  0  0  0  0  0  0  0  0  0  0  0
    4.1850   20.2680   13.1100 H   0  0  0  0  0  0  0  0  0  0  0  0
    3.7820   18.7160   12.4630 H   0  0  0  0  0  0  0  0  0  0  0  0
    2.5340   19.8970   12.7320 H   0  0  0  0  0  0  0  0  0  0  0  0
    0.9120   19.6440   15.7410 H   0  0  0  0  0  0  0  0  0  0  0  0
   -0.0220   18.7460   16.7690 H   0  0  0  0  0  0  0  0  0  0  0  0
    1.6190   15.5190   15.9190 H   0  0  0  0  0  0  0  0  0  0  0  0
    0.4570   16.1750   17.0790 H   0  0  0  0  0  0  0  0  0  0  0  0
   -0.7750   16.8310   15.1830 H   0  0  0  0  0  0  0  0  0  0  0  0
    0.9580   15.6650   12.8950 H   0  0  0  0  0  0  0  0  0  0  0  0
    3.8050   16.5460   12.6260 H   0  0  0  0  0  0  0  0  0  0  0  0
    3.1330   15.0670   13.3020 H   0  0  0  0  0  0  0  0  0  0  0  0
    2.5810   14.4540   10.7990 H   0  0  0  0  0  0  0  0  0  0  0  0
    2.1110   16.2600    8.8690 H   0  0  0  0  0  0  0  0  0  0  0  0
    4.1490   13.4720   12.0920 H   0  0  0  0  0  0  0  0  0  0  0  0
    2.5810   18.5070    8.0200 H   0  0  0  0  0  0  0  0  0  0  0  0
    4.0230   18.6030    8.9770 H   0  0  0  0  0  0  0  0  0  0  0  0
    4.6920   16.6340   10.4490 H   0  0  0  0  0  0  0  0  0  0  0  0
    5.4960   15.6090    6.9110 H   0  0  0  0  0  0  0  0  0  0  0  0
    6.0440   16.6490    8.1740 H   0  0  0  0  0  0  0  0  0  0  0  0
    5.3960   14.5930    9.1860 H   0  0  0  0  0  0  0  0  0  0  0  0
    3.8310   14.5840    8.3650 H   0  0  0  0  0  0  0  0  0  0  0  0
  1  2  1  0  0  0  0
  1  7  2  0  0  0  0
  1 35  1  0  0  0  0
  2  3  2  0  0  0  0
  2 36  1  0  0  0  0
  3  4  1  0  0  0  0
  3  6  1  0  0  0  0
  4  5  1  0  0  0  0
  5  9  1  0  0  0  0
  5 11  1  0  0  0  0
  5 37  1  0  0  0  0
  6  8  2  0  0  0  0
  6 38  1  0  0  0  0
  7  8  1  0  0  0  0
  7 39  1  0  0  0  0
  8 40  1  0  0  0  0
  9 10  2  0  0  0  0
  9 12  1  0  0  0  0
 11 13  1  0  0  0  0
 11 15  1  0  0  0  0
 11 41  1  0  0  0  0
 12 14  1  0  0  0  0
 12 16  1  0  0  0  0
 13 14  1  0  0  0  0
 13 17  1  0  0  0  0
 13 18  1  0  0  0  0
 14 20  1  0  0  0  0
 14 42  1  0  0  0  0
 15 43  1  0  0  0  0
 16 44  1  0  0  0  0
 16 45  1  0  0  0  0
 16 46  1  0  0  0  0
 17 47  1  0  0  0  0
 17 48  1  0  0  0  0
 18 19  1  0  0  0  0
 18 49  1  0  0  0  0
 18 50  1  0  0  0  0
 19 51  1  0  0  0  0
 20 21  1  0  0  0  0
 21 22  1  0  0  0  0
 21 23  1  0  0  0  0
 21 52  1  0  0  0  0
 22 25  1  0  0  0  0
 22 53  1  0  0  0  0
 22 54  1  0  0  0  0
 23 24  2  0  0  0  0
 23 26  1  0  0  0  0
 25 28  1  0  0  0  0
 25 31  1  0  0  0  0
 25 55  1  0  0  0  0
 26 27  1  0  0  0  0
 27 29  1  0  0  0  0
 27 31  1  0  0  0  0
 27 56  1  0  0  0  0
 28 57  1  0  0  0  0
 29 30  1  0  0  0  0
 29 58  1  0  0  0  0
 29 59  1  0  0  0  0
 30 32  2  0  0  0  0
 30 33  1  0  0  0  0
 31 34  1  0  0  0  0
 31 60  1  0  0  0  0
 33 34  1  0  0  0  0
 33 61  1  0  0  0  0
 33 62  1  0  0  0  0
 34 63  1  0  0  0  0
 34 64  1  0  0  0  0
M  END
> <rseq>
1

> <mseq>
417

> <S>
-5.935315

> <rmsd_refine>
1.825904

> <E_conf>
107.659

> <E_score1>
-11.03847

> <E_refine>
-33.3941

> <E_score2>
-5.935315

>  <$File>
outputs/pdb_4j58_cleaned.pdb_2024_06_17__22_47_40_V2_BS398_MIN1_/SDF/sdf_db.sdf

> <Rec_index>
1

>  <PLIF_raw>
[28,1056,70,3,1.6]

> <FP:PLIF>
3 4

>  <PLIF_ligidx>
[28,28]

$$$$
417
  MOE2022           3D

 62 65  0  0  1  0  0  0  0  0999 V2000
    7.3820   21.0360   19.3640 C   0  0  0  0  0  0  0  0  0  0  0  0
    6.5810   19.9070   19.2330 C   0  0  0  0  0  0  0  0  0  0  0  0
    5.2400   20.0510   18.8820 C   0  0  0  0  0  0  0  0  0  0  0  0
    4.4890   18.8960   18.7160 O   0  0  0  0  0  0  0  0  0  0  0  0
    3.2870   18.7880   17.8800 C   0  0  1  0  0  0  0  0  0  0  0  0
    4.6910   21.3230   18.6860 C   0  0  0  0  0  0  0  0  0  0  0  0
    6.8440   22.3030   19.1570 C   0  0  0  0  0  0  0  0  0  0  0  0
    5.5000   22.4450   18.8220 C   0  0  0  0  0  0  0  0  0  0  0  0
    3.6120   18.8760   16.3880 C   0  0  0  0  0  0  0  0  0  0  0  0
    4.4630   19.6790   16.0030 O   0  0  0  0  0  0  0  0  0  0  0  0
    2.4640   17.5320   18.2290 C   0  0  2  0  0  0  0  0  0  0  0  0
    2.9100   18.1300   15.4960 N   0  0  0  0  0  0  0  0  0  0  0  0
    1.2390   17.4370   17.2890 C   0  0  2  0  0  0  0  0  0  0  0  0
    1.8800   17.1200   15.8990 C   0  0  1  0  0  0  0  0  0  0  0  0
    2.1280   17.5090   19.6000 O   0  0  0  0  0  0  0  0  0  0  0  0
    3.1680   18.2810   14.0540 C   0  0  0  0  0  0  0  0  0  0  0  0
    0.4910   18.7200   17.2100 N   0  0  0  0  0  0  0  0  0  0  0  0
    0.2770   16.3390   17.8060 C   0  0  0  0  0  0  0  0  0  0  0  0
   -0.9720   16.3220   17.1470 O   0  0  0  0  0  0  0  0  0  0  0  0
    0.8950   16.9400   14.8220 O   0  0  0  0  0  0  0  0  0  0  0  0
    0.4900   15.5660   14.4670 C   0  0  2  0  0  0  0  0  0  0  0  0
    1.6040   14.7520   13.7550 C   0  0  0  0  0  0  0  0  0  0  0  0
   -0.8900   15.5740   13.8120 C   0  0  0  0  0  0  0  0  0  0  0  0
   -1.9040   15.3520   14.4690 O   0  0  0  0  0  0  0  0  0  0  0  0
    1.9870   15.0870   12.2970 C   0  0  2  0  0  0  0  0  0  0  0  0
   -1.0970   15.8430   12.5100 O   0  0  0  0  0  0  0  0  0  0  0  0
   -0.2070   15.9490   11.3750 C   0  0  1  0  0  0  0  0  0  0  0  0
    3.3860   15.2620   12.2140 O   0  0  0  0  0  0  0  0  0  0  0  0
   -0.6550   17.0010   10.3520 C   0  0  1  0  0  0  0  0  0  0  0  0
   -1.1240   18.1990   11.0190 O   0  0  0  0  0  0  0  0  0  0  0  0
    1.2500   16.2900   11.6890 C   0  0  2  0  0  0  0  0  0  0  0  0
    0.6030   17.2880    9.5700 C   0  0  0  0  0  0  0  0  0  0  0  0
    1.8020   16.7870   10.3380 C   0  0  0  0  0  0  0  0  0  0  0  0
    0.6360   17.6610    8.4310 O   0  0  0  0  0  0  0  0  0  0  0  0
    8.4070   20.9330   19.6120 H   0  0  0  0  0  0  0  0  0  0  0  0
    6.9930   18.9450   19.3850 H   0  0  0  0  0  0  0  0  0  0  0  0
    2.6660   19.6370   18.1210 H   0  0  0  0  0  0  0  0  0  0  0  0
    3.6720   21.4450   18.4310 H   0  0  0  0  0  0  0  0  0  0  0  0
    7.4580   23.1590   19.2500 H   0  0  0  0  0  0  0  0  0  0  0  0
    5.0940   23.4110   18.6650 H   0  0  0  0  0  0  0  0  0  0  0  0
    3.0970   16.6610   18.0550 H   0  0  0  0  0  0  0  0  0  0  0  0
    2.3930   16.1730   16.0000 H   0  0  0  0  0  0  0  0  0  0  0  0
    1.7820   18.3760   19.8350 H   0  0  0  0  0  0  0  0  0  0  0  0
    4.0100   18.9180   13.8270 H   0  0  0  0  0  0  0  0  0  0  0  0
    3.3770   17.3270   13.5980 H   0  0  0  0  0  0  0  0  0  0  0  0
    2.3160   18.7180   13.5520 H   0  0  0  0  0  0  0  0  0  0  0  0
    1.1000   19.4480   16.8640 H   0  0  0  0  0  0  0  0  0  0  0  0
   -0.2730   18.6080   16.5570 H   0  0  0  0  0  0  0  0  0  0  0  0
    0.7460   15.3700   17.7170 H   0  0  0  0  0  0  0  0  0  0  0  0
    0.0610   16.5070   18.8600 H   0  0  0  0  0  0  0  0  0  0  0  0
   -1.4260   17.1500   17.3280 H   0  0  0  0  0  0  0  0  0  0  0  0
    0.3470   15.0650   15.4140 H   0  0  0  0  0  0  0  0  0  0  0  0
    2.4980   14.7970   14.3760 H   0  0  0  0  0  0  0  0  0  0  0  0
    1.2900   13.7120   13.7650 H   0  0  0  0  0  0  0  0  0  0  0  0
    1.7480   14.2150   11.6860 H   0  0  0  0  0  0  0  0  0  0  0  0
   -0.2290   14.9850   10.8640 H   0  0  0  0  0  0  0  0  0  0  0  0
    3.8080   14.4250   12.4270 H   0  0  0  0  0  0  0  0  0  0  0  0
   -1.4510   16.6310    9.7190 H   0  0  0  0  0  0  0  0  0  0  0  0
   -1.8810   17.9870   11.5900 H   0  0  0  0  0  0  0  0  0  0  0  0
    1.2750   17.1480   12.3550 H   0  0  0  0  0  0  0  0  0  0  0  0
    2.5460   17.5610   10.4720 H   0  0  0  0  0  0  0  0  0  0  0  0
    2.2660   15.9810    9.7860 H   0  0  0  0  0  0  0  0  0  0  0  0
  1  2  1  0  0  0  0
  1  7  2  0  0  0  0
  1 35  1  0  0  0  0
  2  3  2  0  0  0  0
  2 36  1  0  0  0  0
  3  4  1  0  0  0  0
  3  6  1  0  0  0  0
  4  5  1  0  0  0  0
  5  9  1  0  0  0  0
  5 11  1  0  0  0  0
  5 37  1  0  0  0  0
  6  8  2  0  0  0  0
  6 38  1  0  0  0  0
  7  8  1  0  0  0  0
  7 39  1  0  0  0  0
  8 40  1  0  0  0  0
  9 10  2  0  0  0  0
  9 12  1  0  0  0  0
 11 13  1  0  0  0  0
 11 15  1  0  0  0  0
 11 41  1  0  0  0  0
 12 14  1  0  0  0  0
 12 16  1  0  0  0  0
 13 14  1  0  0  0  0
 13 17  1  0  0  0  0
 13 18  1  0  0  0  0
 14 20  1  0  0  0  0
 14 42  1  0  0  0  0
 15 43  1  0  0  0  0
 16 44  1  0  0  0  0
 16 45  1  0  0  0  0
 16 46  1  0  0  0  0
 17 47  1  0  0  0  0
 17 48  1  0  0  0  0
 18 19  1  0  0  0  0
 18 49  1  0  0  0  0
 18 50  1  0  0  0  0
 19 51  1  0  0  0  0
 20 21  1  0  0  0  0
 21 22  1  0  0  0  0
 21 23  1  0  0  0  0
 21 52  1  0  0  0  0
 22 25  1  0  0  0  0
 22 53  1  0  0  0  0
 22 54  1  0  0  0  0
 23 24  2  0  0  0  0
 23 26  1  0  0  0  0
 25 28  1  0  0  0  0
 25 31  1  0  0  0  0
 25 55  1  0  0  0  0
 26 27  1  0  0  0  0
 27 29  1  0  0  0  0
 27 31  1  0  0  0  0
 27 56  1  0  0  0  0
 28 57  1  0  0  0  0
 29 30  1  0  0  0  0
 29 32  1  0  0  0  0
 29 58  1  0  0  0  0
 30 59  1  0  0  0  0
 31 33  1  0  0  0  0
 31 60  1  0  0  0  0
 32 33  1  0  0  0  0
 32 34  2  0  0  0  0
 33 61  1  0  0  0  0
 33 62  1  0  0  0  0
M  END
> <rseq>
1

> <mseq>
418

> <S>
-5.972772

> <rmsd_refine>
2.240072

> <E_conf>
157.9032

> <E_score1>
-10.53446

> <E_refine>
-30.04631

> <E_score2>
-5.972772

>  <$File>
outputs/pdb_4j58_cleaned.pdb_2024_06_17__22_47_40_V2_BS398_MIN1_/SDF/sdf_db.sdf

> <Rec_index>
1

>  <PLIF_raw>
[[15,18],[1504,1071],[101,71],[3,3],[0.5,0.5]]

> <FP:PLIF>
7 8

>  <PLIF_ligidx>
[18,15]

$$$$
463
  MOE2022           3D

 62 66  0  0  1  0  0  0  0  0999 V2000
    3.6640   17.9600   19.2470 O   0  0  0  0  0  0  0  0  0  0  0  0
    2.7750   17.6210   18.4560 C   0  0  0  0  0  0  0  0  0  0  0  0
    1.6120   16.8650   18.8340 C   0  0  0  0  0  0  0  0  0  0  0  0
    2.9050   17.9640   17.1030 N   0  0  0  0  0  0  0  0  0  0  0  0
    0.7010   16.5230   17.8800 C   0  0  0  0  0  0  0  0  0  0  0  0
    1.9780   17.4720   16.1620 C   0  0  0  0  0  0  0  0  0  0  0  0
    0.9160   16.8310   16.5570 N   0  0  0  0  0  0  0  0  0  0  0  0
    2.2680   17.6200   14.7430 C   0  0  0  0  0  0  0  0  0  0  0  0
    4.0550   18.8090   16.6570 C   0  0  0  0  0  0  0  0  0  0  0  0
    1.4350   16.4460   20.2860 C   0  0  0  0  0  0  0  0  0  0  0  0
   -0.5620   15.7410   18.1830 C   0  0  0  0  0  0  0  0  0  0  0  0
    3.7830   20.3270   16.5610 C   0  0  1  0  0  0  0  0  0  0  0  0
    3.9640   21.0650   17.8890 C   0  0  0  0  0  0  0  0  0  0  0  0
    1.9700   18.8000   14.0380 C   0  0  0  0  0  0  0  0  0  0  0  0
    4.8270   21.0190   15.6950 C   0  0  0  0  0  0  0  0  0  0  0  0
    2.2860   18.9270   12.6870 C   0  0  0  0  0  0  0  0  0  0  0  0
    2.8840   17.8590   12.0160 C   0  0  0  0  0  0  0  0  0  0  0  0
    4.8010   20.9830   14.4640 O   0  0  0  0  0  0  0  0  0  0  0  0
    2.8490   16.5520   14.0390 C   0  0  0  0  0  0  0  0  0  0  0  0
    5.3880   21.6600   17.8810 C   0  0  1  0  0  0  0  0  0  0  0  0
    5.7370   21.6540   16.4440 N   0  0  0  0  0  0  0  0  0  0  0  0
    6.9140   22.3320   15.8940 C   0  0  0  0  0  0  0  0  0  0  0  0
    5.3600   23.1150   18.4010 C   0  0  0  0  0  0  0  0  0  0  0  0
    3.2620   18.0080   10.6940 O   0  0  0  0  0  0  0  0  0  0  0  0
    3.1440   15.3820   14.6810 O   0  0  0  0  0  0  0  0  0  0  0  0
    3.8590   16.9640   10.0100 C   0  0  0  0  0  0  0  0  0  0  0  0
    6.3270   20.7930   18.7470 C   0  0  0  0  0  0  0  0  0  0  0  0
    4.5860   17.2140    8.9080 C   0  0  0  0  0  0  0  0  0  0  0  0
    3.6430   15.5710   10.5750 C   0  0  2  0  0  0  0  0  0  0  0  0
    3.1390   16.6610   12.6830 C   0  0  0  0  0  0  0  0  0  0  0  0
    3.6880   15.5870   12.0110 O   0  0  0  0  0  0  0  0  0  0  0  0
    7.1870   20.0770   18.1860 O   0  0  0  0  0  0  0  0  0  0  0  0
    4.6330   14.5660   10.0230 C   0  0  0  0  0  0  0  0  0  0  0  0
    5.3810   14.8080    8.9360 C   0  0  0  0  0  0  0  0  0  0  0  0
    5.3140   16.1130    8.1630 C   0  0  0  0  0  0  0  0  0  0  0  0
    6.1740   20.8330   19.9920 O   0  5  0  0  0  0  0  0  0  0  0  0
    4.9090   18.6670   17.3010 H   0  0  0  0  0  0  0  0  0  0  0  0
    4.4160   18.4590   15.7000 H   0  0  0  0  0  0  0  0  0  0  0  0
    0.6050   16.9670   20.7430 H   0  0  0  0  0  0  0  0  0  0  0  0
    1.2430   15.3850   20.3610 H   0  0  0  0  0  0  0  0  0  0  0  0
    2.3120   16.6420   20.8870 H   0  0  0  0  0  0  0  0  0  0  0  0
   -1.0670   16.1150   19.0620 H   0  0  0  0  0  0  0  0  0  0  0  0
   -1.2680   15.7910   17.3660 H   0  0  0  0  0  0  0  0  0  0  0  0
   -0.3400   14.6970   18.3520 H   0  0  0  0  0  0  0  0  0  0  0  0
    2.7840   20.5020   16.1660 H   0  0  0  0  0  0  0  0  0  0  0  0
    3.2220   21.8640   17.9420 H   0  0  0  0  0  0  0  0  0  0  0  0
    3.8260   20.4030   18.7340 H   0  0  0  0  0  0  0  0  0  0  0  0
    1.5000   19.6060   14.5410 H   0  0  0  0  0  0  0  0  0  0  0  0
    2.0790   19.8290   12.1720 H   0  0  0  0  0  0  0  0  0  0  0  0
    6.7610   23.4010   15.8430 H   0  0  0  0  0  0  0  0  0  0  0  0
    7.7880   22.1560   16.5070 H   0  0  0  0  0  0  0  0  0  0  0  0
    7.1500   21.9880   14.8970 H   0  0  0  0  0  0  0  0  0  0  0  0
    4.9090   23.1560   19.3900 H   0  0  0  0  0  0  0  0  0  0  0  0
    6.3710   23.5180   18.4680 H   0  0  0  0  0  0  0  0  0  0  0  0
    4.7780   23.7550   17.7370 H   0  0  0  0  0  0  0  0  0  0  0  0
    3.4760   14.7210   14.0410 H   0  0  0  0  0  0  0  0  0  0  0  0
    4.6940   18.1970    8.5280 H   0  0  0  0  0  0  0  0  0  0  0  0
    2.6450   15.2530   10.3040 H   0  0  0  0  0  0  0  0  0  0  0  0
    4.6890   13.6400   10.5350 H   0  0  0  0  0  0  0  0  0  0  0  0
    6.0530   14.0800    8.5600 H   0  0  0  0  0  0  0  0  0  0  0  0
    4.8410   15.9490    7.2050 H   0  0  0  0  0  0  0  0  0  0  0  0
    6.3200   16.4420    7.9480 H   0  0  0  0  0  0  0  0  0  0  0  0
  1  2  2  0  0  0  0
  2  3  1  0  0  0  0
  2  4  1  0  0  0  0
  3  5  2  0  0  0  0
  3 10  1  0  0  0  0
  4  6  1  0  0  0  0
  4  9  1  0  0  0  0
  5  7  1  0  0  0  0
  5 11  1  0  0  0  0
  6  7  2  0  0  0  0
  6  8  1  0  0  0  0
  8 14  1  0  0  0  0
  8 19  2  0  0  0  0
  9 12  1  0  0  0  0
  9 37  1  0  0  0  0
  9 38  1  0  0  0  0
 10 39  1  0  0  0  0
 10 40  1  0  0  0  0
 10 41  1  0  0  0  0
 11 42  1  0  0  0  0
 11 43  1  0  0  0  0
 11 44  1  0  0  0  0
 12 13  1  0  0  0  0
 12 15  1  0  0  0  0
 12 45  1  0  0  0  0
 13 20  1  0  0  0  0
 13 46  1  0  0  0  0
 13 47  1  0  0  0  0
 14 16  2  0  0  0  0
 14 48  1  0  0  0  0
 15 18  2  0  0  0  0
 15 21  1  0  0  0  0
 16 17  1  0  0  0  0
 16 49  1  0  0  0  0
 17 24  1  0  0  0  0
 17 30  2  0  0  0  0
 19 25  1  0  0  0  0
 19 30  1  0  0  0  0
 20 21  1  0  0  0  0
 20 23  1  0  0  0  0
 20 27  1  0  0  0  0
 21 22  1  0  0  0  0
 22 50  1  0  0  0  0
 22 51  1  0  0  0  0
 22 52  1  0  0  0  0
 23 53  1  0  0  0  0
 23 54  1  0  0  0  0
 23 55  1  0  0  0  0
 24 26  1  0  0  0  0
 25 56  1  0  0  0  0
 26 28  2  0  0  0  0
 26 29  1  0  0  0  0
 27 32  2  0  0  0  0
 27 36  1  0  0  0  0
 28 35  1  0  0  0  0
 28 57  1  0  0  0  0
 29 31  1  0  0  0  0
 29 33  1  0  0  0  0
 29 58  1  0  0  0  0
 30 31  1  0  0  0  0
 33 34  2  0  0  0  0
 33 59  1  0  0  0  0
 34 35  1  0  0  0  0
 34 60  1  0  0  0  0
 35 61  1  0  0  0  0
 35 62  1  0  0  0  0
M  CHG  1  36  -1
M  END
> <rseq>
1

> <mseq>
464

> <S>
-6.910528

> <rmsd_refine>
1.214419

> <E_conf>
-10.41112

> <E_score1>
-13.48538

> <E_refine>
-39.31309

> <E_score2>
-6.910528

>  <$File>
outputs/pdb_4j58_cleaned.pdb_2024_06_17__22_47_40_V2_BS398_MIN1_/SDF/sdf_db.sdf

> <Rec_index>
1

>  <PLIF_raw>
[[36,36],[1866,1872],[125,125],[7,7],[0.9768266057,1.02288703]]

> <FP:PLIF>
13

>  <PLIF_ligidx>
[[36,36]]

$$$$
464
  MOE2022           3D

 61 65  0  0  1  0  0  0  0  0999 V2000
    6.5340   20.0940   19.2380 C   0  0  0  0  0  0  0  0  0  0  0  0
    7.5750   20.9090   18.8670 C   0  0  0  0  0  0  0  0  0  0  0  0
    5.4560   19.8640   18.3570 C   0  0  0  0  0  0  0  0  0  0  0  0
    4.3830   19.0150   18.7060 C   0  0  0  0  0  0  0  0  0  0  0  0
    3.3720   18.7550   17.8080 C   0  0  0  0  0  0  0  0  0  0  0  0
    7.5720   21.5440   17.6120 C   0  0  0  0  0  0  0  0  0  0  0  0
    8.7260   22.4540   17.2680 C   0  0  0  0  0  0  0  0  0  0  0  0
    6.5140   21.3600   16.7260 C   0  0  0  0  0  0  0  0  0  0  0  0
    3.4520   19.4170   16.5350 C   0  0  0  0  0  0  0  0  0  0  0  0
    6.4720   22.0650   15.4480 C   0  0  0  0  0  0  0  0  0  0  0  0
    2.2880   17.8330   18.1810 C   0  0  0  0  0  0  0  0  0  0  0  0
    7.2700   21.7340   14.5250 O   0  0  0  0  0  0  0  0  0  0  0  0
    5.6470   23.0020   15.2860 O   0  5  0  0  0  0  0  0  0  0  0  0
    2.4790   17.0230   19.1310 O   0  5  0  0  0  0  0  0  0  0  0  0
    1.1790   17.8340   17.5760 O   0  0  0  0  0  0  0  0  0  0  0  0
    2.4720   19.2030   15.5850 N   0  0  0  0  0  0  0  0  0  0  0  0
    5.4510   20.4820   17.0850 C   0  0  0  0  0  0  0  0  0  0  0  0
    2.0810   20.2500   14.6370 C   0  0  0  0  0  0  0  0  0  0  0  0
    4.4370   20.2240   16.2060 N   0  0  0  0  0  0  0  0  0  0  0  0
    1.4260   19.6890   13.3700 C   0  0  1  0  0  0  0  0  0  0  0  0
    2.4100   18.7940   12.6020 C   0  0  0  0  0  0  0  0  0  0  0  0
    0.2230   18.7800   13.6650 C   0  0  0  0  0  0  0  0  0  0  0  0
    0.7680   17.3570   13.5740 C   0  0  0  0  0  0  0  0  0  0  0  0
    1.9370   17.3690   12.6460 N   0  3  1  0  0  0  0  0  0  0  0  0
    1.6120   16.8020   11.2950 C   0  0  0  0  0  0  0  0  0  0  0  0
    2.7510   16.8020   10.2950 C   0  0  0  0  0  0  0  0  0  0  0  0
    3.7890   15.8400   10.3140 C   0  0  0  0  0  0  0  0  0  0  0  0
    3.8740   14.7700   11.3090 C   0  0  0  0  0  0  0  0  0  0  0  0
    3.1080   14.6040   12.2580 O   0  0  0  0  0  0  0  0  0  0  0  0
    4.9060   13.8610   11.2140 N   0  0  0  0  0  0  0  0  0  0  0  0
    4.7980   15.9050    9.3280 C   0  0  0  0  0  0  0  0  0  0  0  0
    5.8890   13.9340   10.2430 C   0  0  0  0  0  0  0  0  0  0  0  0
    4.7640   16.9180    8.3600 C   0  0  0  0  0  0  0  0  0  0  0  0
    5.8480   14.9250    9.3200 C   0  0  0  0  0  0  0  0  0  0  0  0
    3.7530   17.8590    8.3640 C   0  0  0  0  0  0  0  0  0  0  0  0
    2.7480   17.7990    9.3280 C   0  0  0  0  0  0  0  0  0  0  0  0
    6.5420   19.6300   20.1880 H   0  0  0  0  0  0  0  0  0  0  0  0
    8.3840   21.0660   19.5320 H   0  0  0  0  0  0  0  0  0  0  0  0
    4.3670   18.5750   19.6680 H   0  0  0  0  0  0  0  0  0  0  0  0
    9.1760   22.1670   16.3180 H   0  0  0  0  0  0  0  0  0  0  0  0
    8.3700   23.4800   17.1920 H   0  0  0  0  0  0  0  0  0  0  0  0
    9.5020   22.4120   18.0310 H   0  0  0  0  0  0  0  0  0  0  0  0
    1.6760   18.6450   15.9380 H   0  0  0  0  0  0  0  0  0  0  0  0
    1.3780   20.9230   15.1290 H   0  0  0  0  0  0  0  0  0  0  0  0
    2.9460   20.8400   14.3300 H   0  0  0  0  0  0  0  0  0  0  0  0
    1.1290   20.5170   12.7250 H   0  0  0  0  0  0  0  0  0  0  0  0
    2.5020   19.1630   11.5900 H   0  0  0  0  0  0  0  0  0  0  0  0
    3.4010   18.9080   13.0240 H   0  0  0  0  0  0  0  0  0  0  0  0
   -0.2240   18.9780   14.6410 H   0  0  0  0  0  0  0  0  0  0  0  0
   -0.5260   18.9140   12.8840 H   0  0  0  0  0  0  0  0  0  0  0  0
    1.0660   17.0460   14.5670 H   0  0  0  0  0  0  0  0  0  0  0  0
   -0.0120   16.6650   13.2860 H   0  0  0  0  0  0  0  0  0  0  0  0
    2.6630   16.7950   13.0550 H   0  0  0  0  0  0  0  0  0  0  0  0
    1.2410   15.7900   11.3810 H   0  0  0  0  0  0  0  0  0  0  0  0
    0.7810   17.3340   10.8510 H   0  0  0  0  0  0  0  0  0  0  0  0
    4.9400   13.1020   11.9170 H   0  0  0  0  0  0  0  0  0  0  0  0
    6.6320   13.1790   10.2920 H   0  0  0  0  0  0  0  0  0  0  0  0
    5.5190   16.9570    7.6200 H   0  0  0  0  0  0  0  0  0  0  0  0
    6.5900   14.9890    8.5710 H   0  0  0  0  0  0  0  0  0  0  0  0
    3.7370   18.6250    7.6320 H   0  0  0  0  0  0  0  0  0  0  0  0
    1.9750   18.5250    9.3120 H   0  0  0  0  0  0  0  0  0  0  0  0
  1  2  1  0  0  0  0
  1  3  2  0  0  0  0
  1 37  1  0  0  0  0
  2  6  2  0  0  0  0
  2 38  1  0  0  0  0
  3  4  1  0  0  0  0
  3 17  1  0  0  0  0
  4  5  2  0  0  0  0
  4 39  1  0  0  0  0
  5  9  1  0  0  0  0
  5 11  1  0  0  0  0
  6  7  1  0  0  0  0
  6  8  1  0  0  0  0
  7 40  1  0  0  0  0
  7 41  1  0  0  0  0
  7 42  1  0  0  0  0
  8 10  1  0  0  0  0
  8 17  2  0  0  0  0
  9 16  1  0  0  0  0
  9 19  2  0  0  0  0
 10 12  2  0  0  0  0
 10 13  1  0  0  0  0
 11 14  1  0  0  0  0
 11 15  2  0  0  0  0
 16 18  1  0  0  0  0
 16 43  1  0  0  0  0
 17 19  1  0  0  0  0
 18 20  1  0  0  0  0
 18 44  1  0  0  0  0
 18 45  1  0  0  0  0
 20 21  1  0  0  0  0
 20 22  1  0  0  0  0
 20 46  1  0  0  0  0
 21 24  1  0  0  0  0
 21 47  1  0  0  0  0
 21 48  1  0  0  0  0
 22 23  1  0  0  0  0
 22 49  1  0  0  0  0
 22 50  1  0  0  0  0
 23 24  1  0  0  0  0
 23 51  1  0  0  0  0
 23 52  1  0  0  0  0
 24 25  1  0  0  0  0
 24 53  1  0  0  0  0
 25 26  1  0  0  0  0
 25 54  1  0  0  0  0
 25 55  1  0  0  0  0
 26 27  2  0  0  0  0
 26 36  1  0  0  0  0
 27 28  1  0  0  0  0
 27 31  1  0  0  0  0
 28 29  2  0  0  0  0
 28 30  1  0  0  0  0
 30 32  1  0  0  0  0
 30 56  1  0  0  0  0
 31 33  2  0  0  0  0
 31 34  1  0  0  0  0
 32 34  2  0  0  0  0
 32 57  1  0  0  0  0
 33 35  1  0  0  0  0
 33 58  1  0  0  0  0
 34 59  1  0  0  0  0
 35 36  2  0  0  0  0
 35 60  1  0  0  0  0
 36 61  1  0  0  0  0
M  CHG  1  13  -1
M  CHG  1  14  -1
M  CHG  1  24   1
M  END
> <rseq>
1

> <mseq>
465

> <S>
-6.327494

> <rmsd_refine>
1.247738

> <E_conf>
-227.8429

> <E_score1>
-11.41832

> <E_refine>
-40.25866

> <E_score2>
-6.327494

>  <$File>
outputs/pdb_4j58_cleaned.pdb_2024_06_17__22_47_40_V2_BS398_MIN1_/SDF/sdf_db.sdf

> <Rec_index>
1

>  <PLIF_raw>
[[30,12,12,12,2,2,2,2,2,2,27,28,30,32,34,31,26,27,31,33,35,36],[1056,826,826,829,1651,1655,1659,1657,1653,1650,823,823,823,823,823,823,823,823,823,823,823,823],[70,54,54,54,112,112,112,112,112,112,54,54,54,54,54,54,54,54,54,54,54,54],[3,2,7,7,10,10,10,10,10,10,10,10,10,10,10,10,10,10,10,10,10,10],[5.4,5.2,5.333519773,2.00362712,0.5,0.5,0.5,0.5,0.5,0.5,1.3,1.3,1.3,1.3,1.3,1.3,1,1,1,1,1,1]]

> <FP:PLIF>
6 19 1 16 2 5 3 4 15

>  <PLIF_ligidx>
[12,12,[12,12],12,[27,28,30,32,34,31,26,27,31,33,35,36],[27,28,30,32,34,31,26,27,31,33,35,36],30,30,[2,2,2,2,2,2]]

$$$$
465
  MOE2022           3D

 60 63  0  0  1  0  0  0  0  0999 V2000
    1.4060   16.1330   20.5920 C   0  0  0  0  0  0  0  0  0  0  0  0
    0.0870   15.7400   20.3920 C   0  0  0  0  0  0  0  0  0  0  0  0
    2.1130   16.7460   19.5610 C   0  0  0  0  0  0  0  0  0  0  0  0
   -0.5190   15.9420   19.1590 C   0  0  0  0  0  0  0  0  0  0  0  0
    0.1820   16.5640   18.1330 C   0  0  0  0  0  0  0  0  0  0  0  0
    1.4980   16.9830   18.3270 C   0  0  0  0  0  0  0  0  0  0  0  0
    2.2140   17.6710   17.1750 C   0  0  1  0  0  0  0  0  0  0  0  0
    3.2960   18.5540   17.6180 N   0  0  0  0  0  0  0  0  0  0  0  0
    2.6920   16.6740   16.1310 C   0  0  0  0  0  0  0  0  0  0  0  0
    3.8600   19.5360   16.8350 C   0  0  0  0  0  0  0  0  0  0  0  0
    2.1780   16.8230   14.9030 N   0  0  0  0  0  0  0  0  0  0  0  0
    3.3110   19.7930   15.7650 O   0  0  0  0  0  0  0  0  0  0  0  0
    5.0820   20.1960   17.3130 C   0  0  0  0  0  0  0  0  0  0  0  0
    3.5390   15.8180   16.3880 O   0  0  0  0  0  0  0  0  0  0  0  0
    2.5710   16.0380   13.7430 C   0  0  1  0  0  0  0  0  0  0  0  0
    1.4850   15.0730   13.2900 C   0  0  0  0  0  0  0  0  0  0  0  0
    2.8410   16.8940   12.5100 C   0  0  0  0  0  0  0  0  0  0  0  0
    5.5520   19.9510   18.6180 C   0  0  0  0  0  0  0  0  0  0  0  0
    1.4780   15.1880   11.7580 C   0  0  0  0  0  0  0  0  0  0  0  0
    5.8390   21.0730   16.4990 C   0  0  0  0  0  0  0  0  0  0  0  0
    2.6010   16.0520   11.3370 N   0  0  0  0  0  0  0  0  0  0  0  0
    6.7380   20.5240   19.0550 C   0  0  0  0  0  0  0  0  0  0  0  0
    5.4280   21.4100   15.2390 O   0  0  0  0  0  0  0  0  0  0  0  0
    3.7840   15.4720   10.8250 C   0  0  0  0  0  0  0  0  0  0  0  0
    7.4910   21.3460   18.2130 C   0  0  0  0  0  0  0  0  0  0  0  0
    8.6800   21.8640   18.6390 O   0  0  0  0  0  0  0  0  0  0  0  0
    7.1570   20.2730   20.3300 O   0  0  0  0  0  0  0  0  0  0  0  0
    7.0390   21.6360   16.9330 C   0  0  0  0  0  0  0  0  0  0  0  0
    4.6310   16.2270    9.9790 C   0  0  0  0  0  0  0  0  0  0  0  0
    4.1300   14.1570   11.1730 C   0  0  0  0  0  0  0  0  0  0  0  0
    4.3250   17.5890    9.5570 C   0  0  0  0  0  0  0  0  0  0  0  0
    5.8100   15.6290    9.5150 C   0  0  0  0  0  0  0  0  0  0  0  0
    4.3230   18.5230   10.4050 O   0  0  0  0  0  0  0  0  0  0  0  0
    4.1380   17.8250    8.3340 O   0  5  0  0  0  0  0  0  0  0  0  0
    6.1500   14.3350    9.8810 C   0  0  0  0  0  0  0  0  0  0  0  0
    5.3090   13.5990   10.7070 C   0  0  0  0  0  0  0  0  0  0  0  0
    1.8740   15.9680   21.5290 H   0  0  0  0  0  0  0  0  0  0  0  0
   -0.4610   15.2910   21.1750 H   0  0  0  0  0  0  0  0  0  0  0  0
    3.1180   17.0320   19.7270 H   0  0  0  0  0  0  0  0  0  0  0  0
   -1.5210   15.6320   19.0030 H   0  0  0  0  0  0  0  0  0  0  0  0
   -0.2930   16.7200   17.1990 H   0  0  0  0  0  0  0  0  0  0  0  0
    1.4740   18.3060   16.7040 H   0  0  0  0  0  0  0  0  0  0  0  0
    3.7620   18.3000   18.5000 H   0  0  0  0  0  0  0  0  0  0  0  0
    1.5130   17.5650   14.7430 H   0  0  0  0  0  0  0  0  0  0  0  0
    3.4790   15.4670   13.9410 H   0  0  0  0  0  0  0  0  0  0  0  0
    1.7320   14.0590   13.6050 H   0  0  0  0  0  0  0  0  0  0  0  0
    0.5090   15.3610   13.6820 H   0  0  0  0  0  0  0  0  0  0  0  0
    2.1620   17.7360   12.4830 H   0  0  0  0  0  0  0  0  0  0  0  0
    3.8380   17.3040   12.5390 H   0  0  0  0  0  0  0  0  0  0  0  0
    5.0090   19.3310   19.2830 H   0  0  0  0  0  0  0  0  0  0  0  0
    1.4940   14.2200   11.2760 H   0  0  0  0  0  0  0  0  0  0  0  0
    0.5530   15.6500   11.4420 H   0  0  0  0  0  0  0  0  0  0  0  0
    4.5570   20.9990   15.0480 H   0  0  0  0  0  0  0  0  0  0  0  0
    8.8930   21.5240   19.5320 H   0  0  0  0  0  0  0  0  0  0  0  0
    6.6040   19.5840   20.7430 H   0  0  0  0  0  0  0  0  0  0  0  0
    7.5990   22.2740   16.2980 H   0  0  0  0  0  0  0  0  0  0  0  0
    3.5050   13.5850   11.8030 H   0  0  0  0  0  0  0  0  0  0  0  0
    6.4500   16.1740    8.8700 H   0  0  0  0  0  0  0  0  0  0  0  0
    7.0470   13.9010    9.5320 H   0  0  0  0  0  0  0  0  0  0  0  0
    5.5730   12.6100   10.9800 H   0  0  0  0  0  0  0  0  0  0  0  0
  1  2  2  0  0  0  0
  1  3  1  0  0  0  0
  1 37  1  0  0  0  0
  2  4  1  0  0  0  0
  2 38  1  0  0  0  0
  3  6  2  0  0  0  0
  3 39  1  0  0  0  0
  4  5  2  0  0  0  0
  4 40  1  0  0  0  0
  5  6  1  0  0  0  0
  5 41  1  0  0  0  0
  6  7  1  0  0  0  0
  7  8  1  0  0  0  0
  7  9  1  0  0  0  0
  7 42  1  0  0  0  0
  8 10  1  0  0  0  0
  8 43  1  0  0  0  0
  9 11  1  0  0  0  0
  9 14  2  0  0  0  0
 10 12  2  0  0  0  0
 10 13  1  0  0  0  0
 11 15  1  0  0  0  0
 11 44  1  0  0  0  0
 13 18  1  0  0  0  0
 13 20  2  0  0  0  0
 15 16  1  0  0  0  0
 15 17  1  0  0  0  0
 15 45  1  0  0  0  0
 16 19  1  0  0  0  0
 16 46  1  0  0  0  0
 16 47  1  0  0  0  0
 17 21  1  0  0  0  0
 17 48  1  0  0  0  0
 17 49  1  0  0  0  0
 18 22  2  0  0  0  0
 18 50  1  0  0  0  0
 19 21  1  0  0  0  0
 19 51  1  0  0  0  0
 19 52  1  0  0  0  0
 20 23  1  0  0  0  0
 20 28  1  0  0  0  0
 21 24  1  0  0  0  0
 22 25  1  0  0  0  0
 22 27  1  0  0  0  0
 23 53  1  0  0  0  0
 24 29  1  0  0  0  0
 24 30  2  0  0  0  0
 25 26  1  0  0  0  0
 25 28  2  0  0  0  0
 26 54  1  0  0  0  0
 27 55  1  0  0  0  0
 28 56  1  0  0  0  0
 29 31  1  0  0  0  0
 29 32  2  0  0  0  0
 30 36  1  0  0  0  0
 30 57  1  0  0  0  0
 31 33  2  0  0  0  0
 31 34  1  0  0  0  0
 32 35  1  0  0  0  0
 32 58  1  0  0  0  0
 35 36  2  0  0  0  0
 35 59  1  0  0  0  0
 36 60  1  0  0  0  0
M  CHG  1  34  -1
M  END
> <rseq>
1

> <mseq>
466

> <S>
-7.583569

> <rmsd_refine>
1.791052

> <E_conf>
-70.64445

> <E_score1>
-10.97667

> <E_refine>
-43.61882

> <E_score2>
-7.583569

>  <$File>
outputs/pdb_4j58_cleaned.pdb_2024_06_17__22_47_40_V2_BS398_MIN1_/SDF/sdf_db.sdf

> <Rec_index>
1

>  <PLIF_raw>
[[14,33,33,26,26,26,26,26,26,24,29,32,35,36,30,1,3,6,5,4,2],[954,823,829,1651,1655,1659,1657,1653,1650,820,820,820,820,820,820,1519,1519,1519,1519,1519,1519],[62,54,54,112,112,112,112,112,112,54,54,54,54,54,54,102,102,102,102,102,102],[2,7,7,10,10,10,10,10,10,10,10,10,10,10,10,10,10,10,10,10,10],[1.4,2.18492399,4.123205602,1.6,1.6,1.6,1.6,1.6,1.6,0.5,0.5,0.5,0.5,0.5,0.5,0.7,0.7,0.7,0.7,0.7,0.7]]

> <FP:PLIF>
1 16 2 20 22 15 47

>  <PLIF_ligidx>
[[33,33],33,[24,29,32,35,36,30],14,[1,3,6,5,4,2],[26,26,26,26,26,26],[26,26,26,26,26,26]]

$$$$
466
  MOE2022           3D

 58 60  0  0  1  0  0  0  0  0999 V2000
    5.6760   14.7500   10.0320 C   0  0  0  0  0  0  0  0  0  0  0  0
    5.6240   15.9830    9.3920 C   0  0  0  0  0  0  0  0  0  0  0  0
    4.5710   16.8470    9.6780 C   0  0  0  0  0  0  0  0  0  0  0  0
    4.6770   14.3890   10.9350 C   0  0  0  0  0  0  0  0  0  0  0  0
    3.6230   15.2610   11.2220 C   0  0  0  0  0  0  0  0  0  0  0  0
    4.4950   18.0550    9.0540 O   0  0  0  0  0  0  0  0  0  0  0  0
    3.5790   16.5040   10.5900 C   0  0  0  0  0  0  0  0  0  0  0  0
    2.5410   14.8400   12.2040 C   0  0  1  0  0  0  0  0  0  0  0  0
    3.0060   14.8560   13.5940 N   0  0  0  0  0  0  0  0  0  0  0  0
    1.3880   15.7100   12.1520 O   0  0  0  0  0  0  0  0  0  0  0  0
    1.8700   15.3480   14.3780 C   0  0  2  0  0  0  0  0  0  0  0  0
    1.1350   16.2880   13.4350 C   0  0  2  0  0  0  0  0  0  0  0  0
   -0.3380   16.4610   13.7530 C   0  0  0  0  0  0  0  0  0  0  0  0
   -1.0750   15.4510   13.7150 O   0  0  0  0  0  0  0  0  0  0  0  0
   -0.7100   17.5990   14.1140 O   0  5  0  0  0  0  0  0  0  0  0  0
    2.2200   15.9850   15.7090 C   0  0  0  0  0  0  0  0  0  0  0  0
    3.3430   16.2700   16.0630 O   0  0  0  0  0  0  0  0  0  0  0  0
    1.1590   16.2110   16.5120 O   0  0  0  0  0  0  0  0  0  0  0  0
    1.1120   16.8690   17.7280 C   0  0  0  0  0  0  0  0  0  0  0  0
    0.4590   16.0210   18.8030 C   0  0  0  0  0  0  0  0  0  0  0  0
    1.5320   18.1370   17.9070 C   0  0  0  0  0  0  0  0  0  0  0  0
    2.0960   19.0720   16.8500 C   0  0  0  0  0  0  0  0  0  0  0  0
    3.5430   19.4470   17.0960 C   0  0  0  0  0  0  0  0  0  0  0  0
    1.4100   15.3750   19.6920 O   0  0  0  0  0  0  0  0  0  0  0  0
    2.1590   16.2320   20.5810 C   0  0  0  0  0  0  0  0  0  0  0  0
    4.4640   18.9230   16.4960 O   0  0  0  0  0  0  0  0  0  0  0  0
    3.7860   20.4190   18.0450 N   0  0  0  0  0  0  0  0  0  0  0  0
    5.0610   20.8250   18.5120 C   0  0  0  0  0  0  0  0  0  0  0  0
    6.0070   19.8380   18.7990 C   0  0  0  0  0  0  0  0  0  0  0  0
    5.3580   22.1910   18.7060 C   0  0  0  0  0  0  0  0  0  0  0  0
    7.2870   20.1920   19.1990 C   0  0  0  0  0  0  0  0  0  0  0  0
    4.3740   23.2650   18.5410 C   0  0  0  0  0  0  0  0  0  0  0  0
    6.6670   22.5160   19.0960 C   0  0  0  0  0  0  0  0  0  0  0  0
    7.6210   21.5340   19.3330 C   0  0  0  0  0  0  0  0  0  0  0  0
    4.4580   24.2810   19.2870 O   0  5  0  0  0  0  0  0  0  0  0  0
    3.4620   23.1840   17.6760 O   0  0  0  0  0  0  0  0  0  0  0  0
    6.4720   14.0800    9.8300 H   0  0  0  0  0  0  0  0  0  0  0  0
    6.3710   16.2550    8.6920 H   0  0  0  0  0  0  0  0  0  0  0  0
    4.7210   13.4430   11.4050 H   0  0  0  0  0  0  0  0  0  0  0  0
    5.2880   18.2020    8.5020 H   0  0  0  0  0  0  0  0  0  0  0  0
    2.7960   17.1900   10.7880 H   0  0  0  0  0  0  0  0  0  0  0  0
    2.1930   13.8420   11.9700 H   0  0  0  0  0  0  0  0  0  0  0  0
    3.7580   15.5260   13.6650 H   0  0  0  0  0  0  0  0  0  0  0  0
    1.2170   14.5060   14.5660 H   0  0  0  0  0  0  0  0  0  0  0  0
    1.6270   17.2510   13.4450 H   0  0  0  0  0  0  0  0  0  0  0  0
   -0.2070   16.6220   19.4030 H   0  0  0  0  0  0  0  0  0  0  0  0
   -0.1490   15.2500   18.3490 H   0  0  0  0  0  0  0  0  0  0  0  0
    1.4500   18.5820   18.8600 H   0  0  0  0  0  0  0  0  0  0  0  0
    1.9860   18.6580   15.8580 H   0  0  0  0  0  0  0  0  0  0  0  0
    1.4950   19.9710   16.8430 H   0  0  0  0  0  0  0  0  0  0  0  0
    2.7240   15.6240   21.2870 H   0  0  0  0  0  0  0  0  0  0  0  0
    2.8590   16.8450   20.0130 H   0  0  0  0  0  0  0  0  0  0  0  0
    1.4780   16.8750   21.1350 H   0  0  0  0  0  0  0  0  0  0  0  0
    2.9690   20.9460   18.3950 H   0  0  0  0  0  0  0  0  0  0  0  0
    5.7440   18.8220   18.7150 H   0  0  0  0  0  0  0  0  0  0  0  0
    8.0100   19.4430   19.3970 H   0  0  0  0  0  0  0  0  0  0  0  0
    6.9380   23.5300   19.2120 H   0  0  0  0  0  0  0  0  0  0  0  0
    8.6030   21.8060   19.6200 H   0  0  0  0  0  0  0  0  0  0  0  0
  1  2  1  0  0  0  0
  1  4  2  0  0  0  0
  1 37  1  0  0  0  0
  2  3  2  0  0  0  0
  2 38  1  0  0  0  0
  3  6  1  0  0  0  0
  3  7  1  0  0  0  0
  4  5  1  0  0  0  0
  4 39  1  0  0  0  0
  5  7  2  0  0  0  0
  5  8  1  0  0  0  0
  6 40  1  0  0  0  0
  7 41  1  0  0  0  0
  8  9  1  0  0  0  0
  8 10  1  0  0  0  0
  8 42  1  0  0  0  0
  9 11  1  0  0  0  0
  9 43  1  0  0  0  0
 10 12  1  0  0  0  0
 11 12  1  0  0  0  0
 11 16  1  0  0  0  0
 11 44  1  0  0  0  0
 12 13  1  0  0  0  0
 12 45  1  0  0  0  0
 13 14  2  0  0  0  0
 13 15  1  0  0  0  0
 16 17  2  0  0  0  0
 16 18  1  0  0  0  0
 18 19  1  0  0  0  0
 19 20  1  0  0  0  0
 19 21  2  0  0  0  0
 20 24  1  0  0  0  0
 20 46  1  0  0  0  0
 20 47  1  0  0  0  0
 21 22  1  0  0  0  0
 21 48  1  0  0  0  0
 22 23  1  0  0  0  0
 22 49  1  0  0  0  0
 22 50  1  0  0  0  0
 23 26  2  0  0  0  0
 23 27  1  0  0  0  0
 24 25  1  0  0  0  0
 25 51  1  0  0  0  0
 25 52  1  0  0  0  0
 25 53  1  0  0  0  0
 27 28  1  0  0  0  0
 27 54  1  0  0  0  0
 28 29  2  0  0  0  0
 28 30  1  0  0  0  0
 29 31  1  0  0  0  0
 29 55  1  0  0  0  0
 30 32  1  0  0  0  0
 30 33  2  0  0  0  0
 31 34  2  0  0  0  0
 31 56  1  0  0  0  0
 32 35  1  0  0  0  0
 32 36  2  0  0  0  0
 33 34  1  0  0  0  0
 33 57  1  0  0  0  0
 34 58  1  0  0  0  0
M  CHG  1  15  -1
M  CHG  1  35  -1
M  END
> <rseq>
1

> <mseq>
467

> <S>
-7.32721

> <rmsd_refine>
1.223355

> <E_conf>
-87.30381

> <E_score1>
-10.74771

> <E_refine>
-45.9763

> <E_score2>
-7.32721

>  <$File>
outputs/pdb_4j58_cleaned.pdb_2024_06_17__22_47_40_V2_BS398_MIN1_/SDF/sdf_db.sdf

> <Rec_index>
1

>  <PLIF_raw>
[[6,17,35,35],[2222,954,1872,1872],[148,62,125,125],[3,2,2,7],[0.5,1.3,8,4.884668056]]

> <FP:PLIF>
20 29 46 13 31 39

>  <PLIF_ligidx>
[17,35,35,35,35,6]

$$$$
467
  MOE2022           3D

 68 71  0  0  1  0  0  0  0  0999 V2000
    2.3170   16.6480   19.0950 O   0  0  0  0  0  0  0  0  0  0  0  0
    1.4020   16.8580   18.3000 C   0  0  0  0  0  0  0  0  0  0  0  0
    1.6120   17.7340   17.2640 N   0  0  0  0  0  0  0  0  0  0  0  0
    0.0960   16.1960   18.3790 C   0  0  0  0  0  0  0  0  0  0  0  0
   -1.0280   16.7120   17.7140 C   0  0  0  0  0  0  0  0  0  0  0  0
   -2.2490   16.0490   17.7660 C   0  0  0  0  0  0  0  0  0  0  0  0
   -0.0450   15.0060   19.1060 C   0  0  0  0  0  0  0  0  0  0  0  0
    2.9340   18.0930   16.7610 C   0  0  1  0  0  0  0  0  0  0  0  0
   -1.2650   14.3410   19.1460 C   0  0  0  0  0  0  0  0  0  0  0  0
   -2.3670   14.8610   18.4780 C   0  0  0  0  0  0  0  0  0  0  0  0
    2.9470   18.1160   15.2290 C   0  0  0  0  0  0  0  0  0  0  0  0
    2.4970   17.0070   14.4930 C   0  0  0  0  0  0  0  0  0  0  0  0
    2.1170   15.8510   15.1180 O   0  0  0  0  0  0  0  0  0  0  0  0
    2.4310   17.0270   13.1050 C   0  0  0  0  0  0  0  0  0  0  0  0
    2.8760   18.1570   12.4310 C   0  0  0  0  0  0  0  0  0  0  0  0
    3.4100   19.4030   17.4160 C   0  0  0  0  0  0  0  0  0  0  0  0
    2.7930   18.1810   11.0550 O   0  0  0  0  0  0  0  0  0  0  0  0
    3.3780   19.2560   13.1270 C   0  0  0  0  0  0  0  0  0  0  0  0
    4.5580   20.0730   16.6470 C   0  0  1  0  0  0  0  0  0  0  0  0
    3.4210   19.2350   14.5250 C   0  0  0  0  0  0  0  0  0  0  0  0
    3.9390   17.9120   10.1930 C   0  0  0  0  0  0  0  0  0  0  0  0
    3.9790   20.4370   15.2670 C   0  0  0  0  0  0  0  0  0  0  0  0
    4.3740   16.4510   10.1680 C   0  0  0  0  0  0  0  0  0  0  0  0
    5.1340   21.3150   17.3670 C   0  0  0  0  0  0  0  0  0  0  0  0
    4.2540   15.7340   11.1480 O   0  0  0  0  0  0  0  0  0  0  0  0
    4.9590   15.9170    9.0320 N   0  0  0  0  0  0  0  0  0  0  0  0
    5.1550   16.7190    7.9050 O   0  0  0  0  0  0  0  0  0  0  0  0
    6.3770   21.0390   18.2450 C   0  0  0  0  0  0  0  0  0  0  0  0
    6.9300   22.3680   18.7830 C   0  0  0  0  0  0  0  0  0  0  0  0
    6.1060   20.0940   19.4250 C   0  0  0  0  0  0  0  0  0  0  0  0
    5.3550   14.5590    8.9130 C   0  0  0  0  0  0  0  0  0  0  0  0
    4.8160   13.7720    7.8910 C   0  0  0  0  0  0  0  0  0  0  0  0
    5.1500   12.4240    7.8230 C   0  0  0  0  0  0  0  0  0  0  0  0
    6.2480   14.0130    9.8390 C   0  0  0  0  0  0  0  0  0  0  0  0
    6.5700   12.6640    9.7640 C   0  0  0  0  0  0  0  0  0  0  0  0
    6.0180   11.8680    8.7630 C   0  0  0  0  0  0  0  0  0  0  0  0
    0.8370   17.8890   16.6040 H   0  0  0  0  0  0  0  0  0  0  0  0
   -0.9610   17.6160   17.1660 H   0  0  0  0  0  0  0  0  0  0  0  0
   -3.0900   16.4480   17.2600 H   0  0  0  0  0  0  0  0  0  0  0  0
    0.7900   14.6000   19.6160 H   0  0  0  0  0  0  0  0  0  0  0  0
    3.6290   17.3180   17.0460 H   0  0  0  0  0  0  0  0  0  0  0  0
   -1.3610   13.4310   19.6790 H   0  0  0  0  0  0  0  0  0  0  0  0
   -3.2960   14.3520   18.5100 H   0  0  0  0  0  0  0  0  0  0  0  0
    1.8430   15.1800   14.4630 H   0  0  0  0  0  0  0  0  0  0  0  0
    2.0560   16.1940   12.5690 H   0  0  0  0  0  0  0  0  0  0  0  0
    2.5690   20.0970   17.4710 H   0  0  0  0  0  0  0  0  0  0  0  0
    3.7120   19.1740   18.4360 H   0  0  0  0  0  0  0  0  0  0  0  0
    3.7170   20.1050   12.5930 H   0  0  0  0  0  0  0  0  0  0  0  0
    5.3580   19.3500   16.5020 H   0  0  0  0  0  0  0  0  0  0  0  0
    3.6830   18.2470    9.1970 H   0  0  0  0  0  0  0  0  0  0  0  0
    4.7640   18.5400   10.4920 H   0  0  0  0  0  0  0  0  0  0  0  0
    3.1820   21.1730   15.3860 H   0  0  0  0  0  0  0  0  0  0  0  0
    4.7660   20.8890   14.6620 H   0  0  0  0  0  0  0  0  0  0  0  0
    5.4330   22.0410   16.6100 H   0  0  0  0  0  0  0  0  0  0  0  0
    4.3520   21.7820   17.9700 H   0  0  0  0  0  0  0  0  0  0  0  0
    5.6070   16.1550    7.2440 H   0  0  0  0  0  0  0  0  0  0  0  0
    7.1500   20.5860   17.6210 H   0  0  0  0  0  0  0  0  0  0  0  0
    7.8190   22.1840   19.3880 H   0  0  0  0  0  0  0  0  0  0  0  0
    7.2060   23.0190   17.9530 H   0  0  0  0  0  0  0  0  0  0  0  0
    6.1770   22.8680   19.3920 H   0  0  0  0  0  0  0  0  0  0  0  0
    6.9910   20.0240   20.0590 H   0  0  0  0  0  0  0  0  0  0  0  0
    5.2660   20.4580   20.0160 H   0  0  0  0  0  0  0  0  0  0  0  0
    5.8820   19.0960   19.0530 H   0  0  0  0  0  0  0  0  0  0  0  0
    4.1450   14.1920    7.1860 H   0  0  0  0  0  0  0  0  0  0  0  0
    4.7390   11.8150    7.0610 H   0  0  0  0  0  0  0  0  0  0  0  0
    6.6650   14.6210   10.5980 H   0  0  0  0  0  0  0  0  0  0  0  0
    7.2350   12.2380   10.4720 H   0  0  0  0  0  0  0  0  0  0  0  0
    6.2620   10.8380    8.7130 H   0  0  0  0  0  0  0  0  0  0  0  0
  1  2  2  0  0  0  0
  2  3  1  0  0  0  0
  2  4  1  0  0  0  0
  3  8  1  0  0  0  0
  3 37  1  0  0  0  0
  4  5  2  0  0  0  0
  4  7  1  0  0  0  0
  5  6  1  0  0  0  0
  5 38  1  0  0  0  0
  6 10  2  0  0  0  0
  6 39  1  0  0  0  0
  7  9  2  0  0  0  0
  7 40  1  0  0  0  0
  8 11  1  0  0  0  0
  8 16  1  0  0  0  0
  8 41  1  0  0  0  0
  9 10  1  0  0  0  0
  9 42  1  0  0  0  0
 10 43  1  0  0  0  0
 11 12  1  0  0  0  0
 11 20  2  0  0  0  0
 12 13  1  0  0  0  0
 12 14  2  0  0  0  0
 13 44  1  0  0  0  0
 14 15  1  0  0  0  0
 14 45  1  0  0  0  0
 15 17  1  0  0  0  0
 15 18  2  0  0  0  0
 16 19  1  0  0  0  0
 16 46  1  0  0  0  0
 16 47  1  0  0  0  0
 17 21  1  0  0  0  0
 18 20  1  0  0  0  0
 18 48  1  0  0  0  0
 19 22  1  0  0  0  0
 19 24  1  0  0  0  0
 19 49  1  0  0  0  0
 20 22  1  0  0  0  0
 21 23  1  0  0  0  0
 21 50  1  0  0  0  0
 21 51  1  0  0  0  0
 22 52  1  0  0  0  0
 22 53  1  0  0  0  0
 23 25  2  0  0  0  0
 23 26  1  0  0  0  0
 24 28  1  0  0  0  0
 24 54  1  0  0  0  0
 24 55  1  0  0  0  0
 26 27  1  0  0  0  0
 26 31  1  0  0  0  0
 27 56  1  0  0  0  0
 28 29  1  0  0  0  0
 28 30  1  0  0  0  0
 28 57  1  0  0  0  0
 29 58  1  0  0  0  0
 29 59  1  0  0  0  0
 29 60  1  0  0  0  0
 30 61  1  0  0  0  0
 30 62  1  0  0  0  0
 30 63  1  0  0  0  0
 31 32  2  0  0  0  0
 31 34  1  0  0  0  0
 32 33  1  0  0  0  0
 32 64  1  0  0  0  0
 33 36  2  0  0  0  0
 33 65  1  0  0  0  0
 34 35  2  0  0  0  0
 34 66  1  0  0  0  0
 35 36  1  0  0  0  0
 35 67  1  0  0  0  0
 36 68  1  0  0  0  0
M  END
> <rseq>
1

> <mseq>
468

> <S>
-7.230153

> <rmsd_refine>
1.722764

> <E_conf>
9.682929

> <E_score1>
-12.69171

> <E_refine>
-38.37874

> <E_score2>
-7.230153

>  <$File>
outputs/pdb_4j58_cleaned.pdb_2024_06_17__22_47_40_V2_BS398_MIN1_/SDF/sdf_db.sdf

> <Rec_index>
1

>  <PLIF_raw>
[[31,34,35,36,33,32],[2241,2241,2241,2241,2241,2241],[150,150,150,150,150,150],[10,10,10,10,10,10],[0.5,0.5,0.5,0.5,0.5,0.5]]

> <FP:PLIF>
52

>  <PLIF_ligidx>
[[31,34,35,36,33,32]]

$$$$
468
  MOE2022           3D

 62 66  0  0  1  0  0  0  0  0999 V2000
    3.6440   17.9480   19.2460 O   0  0  0  0  0  0  0  0  0  0  0  0
    2.7650   17.6220   18.4380 C   0  0  0  0  0  0  0  0  0  0  0  0
    1.5890   16.8740   18.7920 C   0  0  0  0  0  0  0  0  0  0  0  0
    2.9200   17.9730   17.0890 N   0  0  0  0  0  0  0  0  0  0  0  0
    0.6950   16.5410   17.8200 C   0  0  0  0  0  0  0  0  0  0  0  0
    2.0110   17.4850   16.1280 C   0  0  0  0  0  0  0  0  0  0  0  0
    0.9380   16.8490   16.5020 N   0  0  0  0  0  0  0  0  0  0  0  0
    2.3320   17.6290   14.7150 C   0  0  0  0  0  0  0  0  0  0  0  0
    4.0800   18.8180   16.6730 C   0  0  0  0  0  0  0  0  0  0  0  0
    1.3820   16.4540   20.2400 C   0  0  0  0  0  0  0  0  0  0  0  0
   -0.5790   15.7670   18.0970 C   0  0  0  0  0  0  0  0  0  0  0  0
    3.8220   20.3400   16.5990 C   0  0  1  0  0  0  0  0  0  0  0  0
    4.0230   21.0620   17.9330 C   0  0  0  0  0  0  0  0  0  0  0  0
    2.1190   18.8330   14.0180 C   0  0  0  0  0  0  0  0  0  0  0  0
    4.8640   21.0290   15.7280 C   0  0  0  0  0  0  0  0  0  0  0  0
    2.4800   18.9590   12.6780 C   0  0  0  0  0  0  0  0  0  0  0  0
    3.0300   17.8650   12.0070 C   0  0  0  0  0  0  0  0  0  0  0  0
    4.8290   20.9980   14.4980 O   0  0  0  0  0  0  0  0  0  0  0  0
    2.8590   16.5350   14.0070 C   0  0  0  0  0  0  0  0  0  0  0  0
    5.4480   21.6560   17.9130 C   0  0  1  0  0  0  0  0  0  0  0  0
    5.7860   21.6490   16.4740 N   0  0  0  0  0  0  0  0  0  0  0  0
    6.9660   22.3190   15.9190 C   0  0  0  0  0  0  0  0  0  0  0  0
    5.4230   23.1120   18.4280 C   0  0  0  0  0  0  0  0  0  0  0  0
    3.4550   18.0150   10.7030 O   0  0  0  0  0  0  0  0  0  0  0  0
    3.0660   15.3400   14.6370 O   0  0  0  0  0  0  0  0  0  0  0  0
    3.9870   16.9600    9.9980 C   0  0  0  0  0  0  0  0  0  0  0  0
    6.3910   20.7900   18.7750 C   0  0  0  0  0  0  0  0  0  0  0  0
    4.6240   17.1800    8.8290 C   0  0  0  0  0  0  0  0  0  0  0  0
    3.7860   15.5580   10.5530 C   0  0  2  0  0  0  0  0  0  0  0  0
    3.1890   16.6440   12.6590 C   0  0  0  0  0  0  0  0  0  0  0  0
    3.6910   15.5490   11.9890 O   0  0  0  0  0  0  0  0  0  0  0  0
    5.2310   16.0790    8.1030 C   0  0  0  0  0  0  0  0  0  0  0  0
    4.8780   14.5790   10.0730 C   0  0  0  0  0  0  0  0  0  0  0  0
    5.3400   14.8530    8.6520 C   0  0  0  0  0  0  0  0  0  0  0  0
    7.2360   20.0610   18.2080 O   0  0  0  0  0  0  0  0  0  0  0  0
    6.2530   20.8410   20.0200 O   0  5  0  0  0  0  0  0  0  0  0  0
    4.9250   18.6620   17.3260 H   0  0  0  0  0  0  0  0  0  0  0  0
    4.4530   18.4810   15.7160 H   0  0  0  0  0  0  0  0  0  0  0  0
    0.5480   16.9790   20.6820 H   0  0  0  0  0  0  0  0  0  0  0  0
    1.1810   15.3940   20.3090 H   0  0  0  0  0  0  0  0  0  0  0  0
    2.2480   16.6420   20.8580 H   0  0  0  0  0  0  0  0  0  0  0  0
   -1.1010   16.1470   18.9630 H   0  0  0  0  0  0  0  0  0  0  0  0
   -1.2660   15.8180   17.2630 H   0  0  0  0  0  0  0  0  0  0  0  0
   -0.3670   14.7220   18.2740 H   0  0  0  0  0  0  0  0  0  0  0  0
    2.8210   20.5300   16.2180 H   0  0  0  0  0  0  0  0  0  0  0  0
    3.2820   21.8590   18.0080 H   0  0  0  0  0  0  0  0  0  0  0  0
    3.8970   20.3890   18.7730 H   0  0  0  0  0  0  0  0  0  0  0  0
    1.6830   19.6580   14.5180 H   0  0  0  0  0  0  0  0  0  0  0  0
    2.3400   19.8790   12.1710 H   0  0  0  0  0  0  0  0  0  0  0  0
    6.8230   23.3900   15.8730 H   0  0  0  0  0  0  0  0  0  0  0  0
    7.8430   22.1320   16.5240 H   0  0  0  0  0  0  0  0  0  0  0  0
    7.1920   21.9780   14.9180 H   0  0  0  0  0  0  0  0  0  0  0  0
    4.9730   23.1570   19.4170 H   0  0  0  0  0  0  0  0  0  0  0  0
    6.4350   23.5130   18.4930 H   0  0  0  0  0  0  0  0  0  0  0  0
    4.8410   23.7520   17.7640 H   0  0  0  0  0  0  0  0  0  0  0  0
    3.3630   14.6650   13.9930 H   0  0  0  0  0  0  0  0  0  0  0  0
    4.7030   18.1560    8.4240 H   0  0  0  0  0  0  0  0  0  0  0  0
    2.8340   15.2070   10.1780 H   0  0  0  0  0  0  0  0  0  0  0  0
    5.5990   16.2670    7.1270 H   0  0  0  0  0  0  0  0  0  0  0  0
    5.7330   14.6480   10.7310 H   0  0  0  0  0  0  0  0  0  0  0  0
    4.5140   13.5650   10.1640 H   0  0  0  0  0  0  0  0  0  0  0  0
    5.7870   14.0470    8.1310 H   0  0  0  0  0  0  0  0  0  0  0  0
  1  2  2  0  0  0  0
  2  3  1  0  0  0  0
  2  4  1  0  0  0  0
  3  5  2  0  0  0  0
  3 10  1  0  0  0  0
  4  6  1  0  0  0  0
  4  9  1  0  0  0  0
  5  7  1  0  0  0  0
  5 11  1  0  0  0  0
  6  7  2  0  0  0  0
  6  8  1  0  0  0  0
  8 14  1  0  0  0  0
  8 19  2  0  0  0  0
  9 12  1  0  0  0  0
  9 37  1  0  0  0  0
  9 38  1  0  0  0  0
 10 39  1  0  0  0  0
 10 40  1  0  0  0  0
 10 41  1  0  0  0  0
 11 42  1  0  0  0  0
 11 43  1  0  0  0  0
 11 44  1  0  0  0  0
 12 13  1  0  0  0  0
 12 15  1  0  0  0  0
 12 45  1  0  0  0  0
 13 20  1  0  0  0  0
 13 46  1  0  0  0  0
 13 47  1  0  0  0  0
 14 16  2  0  0  0  0
 14 48  1  0  0  0  0
 15 18  2  0  0  0  0
 15 21  1  0  0  0  0
 16 17  1  0  0  0  0
 16 49  1  0  0  0  0
 17 24  1  0  0  0  0
 17 30  2  0  0  0  0
 19 25  1  0  0  0  0
 19 30  1  0  0  0  0
 20 21  1  0  0  0  0
 20 23  1  0  0  0  0
 20 27  1  0  0  0  0
 21 22  1  0  0  0  0
 22 50  1  0  0  0  0
 22 51  1  0  0  0  0
 22 52  1  0  0  0  0
 23 53  1  0  0  0  0
 23 54  1  0  0  0  0
 23 55  1  0  0  0  0
 24 26  1  0  0  0  0
 25 56  1  0  0  0  0
 26 28  2  0  0  0  0
 26 29  1  0  0  0  0
 27 35  2  0  0  0  0
 27 36  1  0  0  0  0
 28 32  1  0  0  0  0
 28 57  1  0  0  0  0
 29 31  1  0  0  0  0
 29 33  1  0  0  0  0
 29 58  1  0  0  0  0
 30 31  1  0  0  0  0
 32 34  2  0  0  0  0
 32 59  1  0  0  0  0
 33 34  1  0  0  0  0
 33 60  1  0  0  0  0
 33 61  1  0  0  0  0
 34 62  1  0  0  0  0
M  CHG  1  36  -1
M  END
> <rseq>
1

> <mseq>
469

> <S>
-6.941039

> <rmsd_refine>
1.293865

> <E_conf>
-19.83196

> <E_score1>
-13.49654

> <E_refine>
-39.42208

> <E_score2>
-6.941039

>  <$File>
outputs/pdb_4j58_cleaned.pdb_2024_06_17__22_47_40_V2_BS398_MIN1_/SDF/sdf_db.sdf

> <Rec_index>
1

>  <PLIF_raw>
[[36,36],[1866,1872],[125,125],[7,7],[1.03231818,1.041665582]]

> <FP:PLIF>
13

>  <PLIF_ligidx>
[[36,36]]

$$$$
469
  MOE2022           3D

 61 64  0  0  1  0  0  0  0  0999 V2000
    2.3430   16.2560   20.5530 C   0  0  0  0  0  0  0  0  0  0  0  0
    1.1070   15.6780   20.8010 C   0  0  0  0  0  0  0  0  0  0  0  0
    2.5530   16.9600   19.3760 C   0  0  0  0  0  0  0  0  0  0  0  0
    0.0820   15.7950   19.8670 C   0  0  0  0  0  0  0  0  0  0  0  0
    0.2920   16.5070   18.6880 C   0  0  0  0  0  0  0  0  0  0  0  0
    1.5260   17.1080   18.4410 C   0  0  0  0  0  0  0  0  0  0  0  0
    1.7550   17.9290   17.1820 C   0  0  1  0  0  0  0  0  0  0  0  0
    2.3920   19.1960   17.5730 N   0  0  0  0  0  0  0  0  0  0  0  0
    2.5450   17.1320   16.1460 C   0  0  0  0  0  0  0  0  0  0  0  0
    3.1710   19.9830   16.7650 C   0  0  0  0  0  0  0  0  0  0  0  0
    1.8800   16.6400   15.0870 N   0  0  0  0  0  0  0  0  0  0  0  0
    2.9510   20.0070   15.5560 O   0  0  0  0  0  0  0  0  0  0  0  0
    4.2280   20.7420   17.4220 C   0  0  0  0  0  0  0  0  0  0  0  0
    3.7510   16.9320   16.2820 O   0  0  0  0  0  0  0  0  0  0  0  0
    2.5320   15.8380   14.0570 C   0  0  1  0  0  0  0  0  0  0  0  0
    1.6270   14.7630   13.4500 C   0  0  0  0  0  0  0  0  0  0  0  0
    2.9130   16.6460   12.8180 C   0  0  0  0  0  0  0  0  0  0  0  0
    5.0030   20.1320   18.4250 C   0  0  0  0  0  0  0  0  0  0  0  0
    2.3550   14.4700   12.1320 C   0  0  0  0  0  0  0  0  0  0  0  0
    4.5060   22.0840   17.0890 C   0  0  0  0  0  0  0  0  0  0  0  0
    3.0880   15.6740   11.7520 N   0  0  0  0  0  0  0  0  0  0  0  0
    5.9970   20.8520   19.0740 C   0  0  0  0  0  0  0  0  0  0  0  0
    3.7940   22.7150   16.1090 O   0  0  0  0  0  0  0  0  0  0  0  0
    6.7410   20.2420   20.0550 O   0  0  0  0  0  0  0  0  0  0  0  0
    6.2430   22.1850   18.7360 C   0  0  0  0  0  0  0  0  0  0  0  0
    7.2240   22.8740   19.3780 O   0  0  0  0  0  0  0  0  0  0  0  0
    5.5000   22.8110   17.7410 C   0  0  0  0  0  0  0  0  0  0  0  0
    4.0330   15.7730   10.7480 C   0  0  0  0  0  0  0  0  0  0  0  0
    4.5020   16.8800   10.4950 O   0  0  0  0  0  0  0  0  0  0  0  0
    4.4610   14.5720   10.0440 C   0  0  0  0  0  0  0  0  0  0  0  0
    5.2170   13.5980   10.7120 C   0  0  0  0  0  0  0  0  0  0  0  0
    4.1390   14.3800    8.6930 C   0  0  0  0  0  0  0  0  0  0  0  0
    4.5430   13.2260    8.0310 C   0  0  0  0  0  0  0  0  0  0  0  0
    5.2750   12.2630    8.7230 C   0  0  0  0  0  0  0  0  0  0  0  0
    5.6510   11.1230    8.0860 O   0  0  0  0  0  0  0  0  0  0  0  0
    5.6250   12.4430   10.0590 C   0  0  0  0  0  0  0  0  0  0  0  0
    3.1260   16.1580   21.2600 H   0  0  0  0  0  0  0  0  0  0  0  0
    0.9560   15.1510   21.7020 H   0  0  0  0  0  0  0  0  0  0  0  0
    3.5020   17.3910   19.1990 H   0  0  0  0  0  0  0  0  0  0  0  0
   -0.8600   15.3480   20.0520 H   0  0  0  0  0  0  0  0  0  0  0  0
   -0.4950   16.5980   17.9850 H   0  0  0  0  0  0  0  0  0  0  0  0
    0.7890   18.1720   16.7580 H   0  0  0  0  0  0  0  0  0  0  0  0
    2.5110   19.3110   18.5920 H   0  0  0  0  0  0  0  0  0  0  0  0
    0.8920   16.8170   14.9900 H   0  0  0  0  0  0  0  0  0  0  0  0
    3.4260   15.3480   14.4490 H   0  0  0  0  0  0  0  0  0  0  0  0
    1.5630   13.8790   14.0820 H   0  0  0  0  0  0  0  0  0  0  0  0
    0.6360   15.1720   13.2430 H   0  0  0  0  0  0  0  0  0  0  0  0
    2.1010   17.3270   12.5590 H   0  0  0  0  0  0  0  0  0  0  0  0
    3.8170   17.2220   13.0110 H   0  0  0  0  0  0  0  0  0  0  0  0
    4.8360   19.1210   18.6860 H   0  0  0  0  0  0  0  0  0  0  0  0
    3.0500   13.6480   12.2930 H   0  0  0  0  0  0  0  0  0  0  0  0
    1.6380   14.1880   11.3610 H   0  0  0  0  0  0  0  0  0  0  0  0
    3.1680   22.0930   15.6830 H   0  0  0  0  0  0  0  0  0  0  0  0
    6.5300   19.2900   20.1020 H   0  0  0  0  0  0  0  0  0  0  0  0
    7.7180   22.2670   19.9670 H   0  0  0  0  0  0  0  0  0  0  0  0
    5.6900   23.8210   17.4800 H   0  0  0  0  0  0  0  0  0  0  0  0
    5.4780   13.7410   11.7270 H   0  0  0  0  0  0  0  0  0  0  0  0
    3.5810   15.1170    8.1750 H   0  0  0  0  0  0  0  0  0  0  0  0
    4.2930   13.0770    7.0110 H   0  0  0  0  0  0  0  0  0  0  0  0
    6.1330   10.5310    8.6960 H   0  0  0  0  0  0  0  0  0  0  0  0
    6.1920   11.7100   10.5730 H   0  0  0  0  0  0  0  0  0  0  0  0
  1  2  2  0  0  0  0
  1  3  1  0  0  0  0
  1 37  1  0  0  0  0
  2  4  1  0  0  0  0
  2 38  1  0  0  0  0
  3  6  2  0  0  0  0
  3 39  1  0  0  0  0
  4  5  2  0  0  0  0
  4 40  1  0  0  0  0
  5  6  1  0  0  0  0
  5 41  1  0  0  0  0
  6  7  1  0  0  0  0
  7  8  1  0  0  0  0
  7  9  1  0  0  0  0
  7 42  1  0  0  0  0
  8 10  1  0  0  0  0
  8 43  1  0  0  0  0
  9 11  1  0  0  0  0
  9 14  2  0  0  0  0
 10 12  2  0  0  0  0
 10 13  1  0  0  0  0
 11 15  1  0  0  0  0
 11 44  1  0  0  0  0
 13 18  1  0  0  0  0
 13 20  2  0  0  0  0
 15 16  1  0  0  0  0
 15 17  1  0  0  0  0
 15 45  1  0  0  0  0
 16 19  1  0  0  0  0
 16 46  1  0  0  0  0
 16 47  1  0  0  0  0
 17 21  1  0  0  0  0
 17 48  1  0  0  0  0
 17 49  1  0  0  0  0
 18 22  2  0  0  0  0
 18 50  1  0  0  0  0
 19 21  1  0  0  0  0
 19 51  1  0  0  0  0
 19 52  1  0  0  0  0
 20 23  1  0  0  0  0
 20 27  1  0  0  0  0
 21 28  1  0  0  0  0
 22 24  1  0  0  0  0
 22 25  1  0  0  0  0
 23 53  1  0  0  0  0
 24 54  1  0  0  0  0
 25 26  1  0  0  0  0
 25 27  2  0  0  0  0
 26 55  1  0  0  0  0
 27 56  1  0  0  0  0
 28 29  2  0  0  0  0
 28 30  1  0  0  0  0
 30 31  2  0  0  0  0
 30 32  1  0  0  0  0
 31 36  1  0  0  0  0
 31 57  1  0  0  0  0
 32 33  2  0  0  0  0
 32 58  1  0  0  0  0
 33 34  1  0  0  0  0
 33 59  1  0  0  0  0
 34 35  1  0  0  0  0
 34 36  2  0  0  0  0
 35 60  1  0  0  0  0
 36 61  1  0  0  0  0
M  END
> <rseq>
1

> <mseq>
470

> <S>
-7.24943

> <rmsd_refine>
1.539075

> <E_conf>
-2.990561

> <E_score1>
-9.956145

> <E_refine>
-44.65965

> <E_score2>
-7.24943

>  <$File>
outputs/pdb_4j58_cleaned.pdb_2024_06_17__22_47_40_V2_BS398_MIN1_/SDF/sdf_db.sdf

> <Rec_index>
1

>  <PLIF_raw>
[[8,14,29,26,26,26,26,26,26,1,3,6,5,4,2],[1504,954,823,1650,1653,1657,1659,1655,1651,1519,1519,1519,1519,1519,1519],[101,62,54,112,112,112,112,112,112,102,102,102,102,102,102],[3,2,2,10,10,10,10,10,10,10,10,10,10,10,10],[1.8,3.8,0.8,1.1,1.1,1.1,1.1,1.1,1.1,0.5,0.5,0.5,0.5,0.5,0.5]]

> <FP:PLIF>
6 20 23 8 10 22 15 47

>  <PLIF_ligidx>
[29,14,14,8,8,[1,3,6,5,4,2],[26,26,26,26,26,26],[26,26,26,26,26,26]]

$$$$
470
  MOE2022           3D

 70 73  0  0  1  0  0  0  0  0999 V2000
    3.0090   16.9880   19.4660 O   0  0  0  0  0  0  0  0  0  0  0  0
    2.0800   17.3800   18.7600 C   0  0  0  0  0  0  0  0  0  0  0  0
    2.2540   18.5270   18.0290 N   0  0  0  0  0  0  0  0  0  0  0  0
    0.8090   16.6580   18.6200 C   0  0  0  0  0  0  0  0  0  0  0  0
   -0.2070   17.1190   17.7640 C   0  0  0  0  0  0  0  0  0  0  0  0
   -1.3790   16.3930   17.5960 C   0  0  0  0  0  0  0  0  0  0  0  0
    0.6040   15.4530   19.3070 C   0  0  0  0  0  0  0  0  0  0  0  0
    3.5020   18.8450   17.3390 C   0  0  1  0  0  0  0  0  0  0  0  0
   -0.5670   14.7230   19.1250 C   0  0  0  0  0  0  0  0  0  0  0  0
   -1.5590   15.1930   18.2730 C   0  0  0  0  0  0  0  0  0  0  0  0
    3.2860   18.7150   15.8290 C   0  0  0  0  0  0  0  0  0  0  0  0
    2.8270   17.5090   15.2740 C   0  0  0  0  0  0  0  0  0  0  0  0
    2.7830   16.3610   16.0170 O   0  0  0  0  0  0  0  0  0  0  0  0
    2.4070   17.4300   13.9520 C   0  0  0  0  0  0  0  0  0  0  0  0
    2.5130   18.5600   13.1530 C   0  0  0  0  0  0  0  0  0  0  0  0
    4.0260   20.2190   17.7910 C   0  0  0  0  0  0  0  0  0  0  0  0
    1.9910   18.5230   11.8830 O   0  0  0  0  0  0  0  0  0  0  0  0
    3.0920   19.7330   13.6370 C   0  0  0  0  0  0  0  0  0  0  0  0
    4.9660   20.8610   16.7610 C   0  0  1  0  0  0  0  0  0  0  0  0
    3.4910   19.8080   14.9740 C   0  0  0  0  0  0  0  0  0  0  0  0
    2.7100   18.1260   10.6870 C   0  0  1  0  0  0  0  0  0  0  0  0
    4.1310   21.0860   15.4890 C   0  0  0  0  0  0  0  0  0  0  0  0
    3.3800   16.7520   10.8920 C   0  0  0  0  0  0  0  0  0  0  0  0
    5.6390   22.1550   17.2410 C   0  0  0  0  0  0  0  0  0  0  0  0
    6.5750   22.5820   16.5290 O   0  0  0  0  0  0  0  0  0  0  0  0
    1.7200   18.1390    9.5090 C   0  0  0  0  0  0  0  0  0  0  0  0
    4.2400   16.1860    9.7690 C   0  0  0  0  0  0  0  0  0  0  0  0
    5.2330   22.6920   18.2970 O   0  5  0  0  0  0  0  0  0  0  0  0
    4.5250   17.1100    8.5840 C   0  0  0  0  0  0  0  0  0  0  0  0
    3.3380   17.3200    7.6150 C   0  0  1  0  0  0  0  0  0  0  0  0
    3.8370   17.7730    6.2340 C   0  0  0  0  0  0  0  0  0  0  0  0
    4.7200   14.9240    9.8290 C   0  0  0  0  0  0  0  0  0  0  0  0
    2.6720   16.0880    7.4280 O   0  0  0  0  0  0  0  0  0  0  0  0
    5.5560   14.2950    8.7300 C   0  0  0  0  0  0  0  0  0  0  0  0
    2.3550   18.3900    8.1330 C   0  0  0  0  0  0  0  0  0  0  0  0
    4.4910   13.9750   10.9950 C   0  0  0  0  0  0  0  0  0  0  0  0
    1.4220   18.9190   17.5670 H   0  0  0  0  0  0  0  0  0  0  0  0
   -0.0920   18.0250   17.2270 H   0  0  0  0  0  0  0  0  0  0  0  0
   -2.1360   16.7520   16.9470 H   0  0  0  0  0  0  0  0  0  0  0  0
    1.3540   15.0810   19.9560 H   0  0  0  0  0  0  0  0  0  0  0  0
    4.2540   18.1270   17.6090 H   0  0  0  0  0  0  0  0  0  0  0  0
   -0.7070   13.8020   19.6230 H   0  0  0  0  0  0  0  0  0  0  0  0
   -2.4500   14.6350   18.1370 H   0  0  0  0  0  0  0  0  0  0  0  0
    2.3680   15.6320   15.5150 H   0  0  0  0  0  0  0  0  0  0  0  0
    2.0040   16.5300   13.5640 H   0  0  0  0  0  0  0  0  0  0  0  0
    3.1810   20.8900   17.9600 H   0  0  0  0  0  0  0  0  0  0  0  0
    4.5500   20.0920   18.7400 H   0  0  0  0  0  0  0  0  0  0  0  0
    3.2070   20.5680   12.9950 H   0  0  0  0  0  0  0  0  0  0  0  0
    5.7610   20.1480   16.5390 H   0  0  0  0  0  0  0  0  0  0  0  0
    3.4770   18.8850   10.5330 H   0  0  0  0  0  0  0  0  0  0  0  0
    3.3460   21.8170   15.6930 H   0  0  0  0  0  0  0  0  0  0  0  0
    4.7800   21.4940   14.7130 H   0  0  0  0  0  0  0  0  0  0  0  0
    3.9920   16.8020   11.7780 H   0  0  0  0  0  0  0  0  0  0  0  0
    2.5980   16.0420   11.1260 H   0  0  0  0  0  0  0  0  0  0  0  0
    1.1540   17.2060    9.4920 H   0  0  0  0  0  0  0  0  0  0  0  0
    1.0070   18.9470    9.6780 H   0  0  0  0  0  0  0  0  0  0  0  0
    4.8590   18.0720    8.9400 H   0  0  0  0  0  0  0  0  0  0  0  0
    5.3790   16.7550    8.0260 H   0  0  0  0  0  0  0  0  0  0  0  0
    4.5390   17.0420    5.8300 H   0  0  0  0  0  0  0  0  0  0  0  0
    2.9970   17.8670    5.5450 H   0  0  0  0  0  0  0  0  0  0  0  0
    4.3350   18.7400    6.3130 H   0  0  0  0  0  0  0  0  0  0  0  0
    2.5490   15.6850    8.2920 H   0  0  0  0  0  0  0  0  0  0  0  0
    5.1470   14.4890    7.7480 H   0  0  0  0  0  0  0  0  0  0  0  0
    6.5640   14.6780    8.7590 H   0  0  0  0  0  0  0  0  0  0  0  0
    5.6180   13.2200    8.8260 H   0  0  0  0  0  0  0  0  0  0  0  0
    1.5430   18.4860    7.4100 H   0  0  0  0  0  0  0  0  0  0  0  0
    2.8680   19.3520    8.1700 H   0  0  0  0  0  0  0  0  0  0  0  0
    5.4250   13.5410   11.3250 H   0  0  0  0  0  0  0  0  0  0  0  0
    4.0480   14.4320   11.8670 H   0  0  0  0  0  0  0  0  0  0  0  0
    3.8440   13.1570   10.7070 H   0  0  0  0  0  0  0  0  0  0  0  0
  1  2  2  0  0  0  0
  2  3  1  0  0  0  0
  2  4  1  0  0  0  0
  3  8  1  0  0  0  0
  3 37  1  0  0  0  0
  4  5  2  0  0  0  0
  4  7  1  0  0  0  0
  5  6  1  0  0  0  0
  5 38  1  0  0  0  0
  6 10  2  0  0  0  0
  6 39  1  0  0  0  0
  7  9  2  0  0  0  0
  7 40  1  0  0  0  0
  8 11  1  0  0  0  0
  8 16  1  0  0  0  0
  8 41  1  0  0  0  0
  9 10  1  0  0  0  0
  9 42  1  0  0  0  0
 10 43  1  0  0  0  0
 11 12  1  0  0  0  0
 11 20  2  0  0  0  0
 12 13  1  0  0  0  0
 12 14  2  0  0  0  0
 13 44  1  0  0  0  0
 14 15  1  0  0  0  0
 14 45  1  0  0  0  0
 15 17  1  0  0  0  0
 15 18  2  0  0  0  0
 16 19  1  0  0  0  0
 16 46  1  0  0  0  0
 16 47  1  0  0  0  0
 17 21  1  0  0  0  0
 18 20  1  0  0  0  0
 18 48  1  0  0  0  0
 19 22  1  0  0  0  0
 19 24  1  0  0  0  0
 19 49  1  0  0  0  0
 20 22  1  0  0  0  0
 21 23  1  0  0  0  0
 21 26  1  0  0  0  0
 21 50  1  0  0  0  0
 22 51  1  0  0  0  0
 22 52  1  0  0  0  0
 23 27  1  0  0  0  0
 23 53  1  0  0  0  0
 23 54  1  0  0  0  0
 24 25  2  0  0  0  0
 24 28  1  0  0  0  0
 26 35  1  0  0  0  0
 26 55  1  0  0  0  0
 26 56  1  0  0  0  0
 27 29  1  0  0  0  0
 27 32  2  0  0  0  0
 29 30  1  0  0  0  0
 29 57  1  0  0  0  0
 29 58  1  0  0  0  0
 30 31  1  0  0  0  0
 30 33  1  0  0  0  0
 30 35  1  0  0  0  0
 31 59  1  0  0  0  0
 31 60  1  0  0  0  0
 31 61  1  0  0  0  0
 32 34  1  0  0  0  0
 32 36  1  0  0  0  0
 33 62  1  0  0  0  0
 34 63  1  0  0  0  0
 34 64  1  0  0  0  0
 34 65  1  0  0  0  0
 35 66  1  0  0  0  0
 35 67  1  0  0  0  0
 36 68  1  0  0  0  0
 36 69  1  0  0  0  0
 36 70  1  0  0  0  0
M  CHG  1  28  -1
M  END
> <rseq>
1

> <mseq>
471

> <S>
-6.038821

> <rmsd_refine>
1.332779

> <E_conf>
-148.8391

> <E_score1>
-12.14366

> <E_refine>
-33.07327

> <E_score2>
-6.038821

>  <$File>
outputs/pdb_4j58_cleaned.pdb_2024_06_17__22_47_40_V2_BS398_MIN1_/SDF/sdf_db.sdf

> <Rec_index>
1

>  <PLIF_raw>
[28,1872,125,7,0.6477514265]

> <FP:PLIF>
13

>  <PLIF_ligidx>
28

$$$$
471
  MOE2022           3D

 64 67  0  0  1  0  0  0  0  0999 V2000
    3.6420   17.7540   19.6220 O   0  0  0  0  0  0  0  0  0  0  0  0
    2.6990   17.3100   18.9580 C   0  0  0  0  0  0  0  0  0  0  0  0
    1.6550   16.4800   19.4960 C   0  0  0  0  0  0  0  0  0  0  0  0
    2.6350   17.6160   17.5950 N   0  0  0  0  0  0  0  0  0  0  0  0
    0.6450   16.0660   18.6800 C   0  0  0  0  0  0  0  0  0  0  0  0
    1.5970   17.0870   16.8030 C   0  0  0  0  0  0  0  0  0  0  0  0
    0.6440   16.3840   17.3430 N   0  0  0  0  0  0  0  0  0  0  0  0
    1.6280   17.3330   15.3720 C   0  0  0  0  0  0  0  0  0  0  0  0
    3.6770   18.4920   16.9750 C   0  0  0  0  0  0  0  0  0  0  0  0
    1.7040   16.0800   20.9630 C   0  0  0  0  0  0  0  0  0  0  0  0
   -0.5070   15.2020   19.1530 C   0  0  0  0  0  0  0  0  0  0  0  0
    3.2450   19.9450   16.6880 C   0  0  1  0  0  0  0  0  0  0  0  0
    3.5170   20.8930   17.8610 C   0  0  0  0  0  0  0  0  0  0  0  0
    0.7650   18.2750   14.7930 C   0  0  0  0  0  0  0  0  0  0  0  0
    4.0540   20.5580   15.5540 C   0  0  0  0  0  0  0  0  0  0  0  0
    0.8240   18.5480   13.4330 C   0  0  0  0  0  0  0  0  0  0  0  0
    1.7490   17.8740   12.6310 C   0  0  0  0  0  0  0  0  0  0  0  0
    4.0330   20.1060   14.4090 O   0  0  0  0  0  0  0  0  0  0  0  0
    2.5140   16.6350   14.5320 C   0  0  0  0  0  0  0  0  0  0  0  0
    4.5550   21.9360   17.3920 C   0  0  1  0  0  0  0  0  0  0  0  0
    4.7620   21.6140   15.9670 N   0  0  0  0  0  0  0  0  0  0  0  0
    5.6790   22.3660   15.1060 C   0  0  0  0  0  0  0  0  0  0  0  0
    3.9610   23.3600   17.5070 C   0  0  0  0  0  0  0  0  0  0  0  0
    1.7860   18.2220   11.2970 O   0  0  0  0  0  0  0  0  0  0  0  0
    3.3170   15.6610   15.0470 O   0  0  0  0  0  0  0  0  0  0  0  0
    2.5920   17.6510   10.3370 C   0  0  0  0  0  0  0  0  0  0  0  0
    5.8500   21.7850   18.2160 C   0  0  0  0  0  0  0  0  0  0  0  0
    2.6030   16.9120   13.1730 C   0  0  0  0  0  0  0  0  0  0  0  0
    3.4400   18.4870    9.6180 C   0  0  0  0  0  0  0  0  0  0  0  0
    4.2740   17.9370    8.6520 C   0  0  0  0  0  0  0  0  0  0  0  0
    6.6330   20.8530   17.9200 O   0  0  0  0  0  0  0  0  0  0  0  0
    2.5500   16.2790   10.0890 C   0  0  0  0  0  0  0  0  0  0  0  0
    6.0410   22.5640   19.1800 O   0  5  0  0  0  0  0  0  0  0  0  0
    4.2670   16.5620    8.4100 C   0  0  0  0  0  0  0  0  0  0  0  0
    5.2050   15.9800    7.3770 C   0  0  0  0  0  0  0  0  0  0  0  0
    3.3980   15.7380    9.1280 C   0  0  0  0  0  0  0  0  0  0  0  0
    4.5780   18.5260   17.5680 H   0  0  0  0  0  0  0  0  0  0  0  0
    4.0280   18.0450   16.0570 H   0  0  0  0  0  0  0  0  0  0  0  0
    0.9330   16.5870   21.5260 H   0  0  0  0  0  0  0  0  0  0  0  0
    1.5570   15.0160   21.0800 H   0  0  0  0  0  0  0  0  0  0  0  0
    2.6540   16.3080   21.4240 H   0  0  0  0  0  0  0  0  0  0  0  0
   -0.8650   15.4990   20.1280 H   0  0  0  0  0  0  0  0  0  0  0  0
   -1.3490   15.2600   18.4760 H   0  0  0  0  0  0  0  0  0  0  0  0
   -0.2110   14.1630   19.2060 H   0  0  0  0  0  0  0  0  0  0  0  0
    2.1890   19.9740   16.4280 H   0  0  0  0  0  0  0  0  0  0  0  0
    2.5830   21.3720   18.1600 H   0  0  0  0  0  0  0  0  0  0  0  0
    3.9140   20.3410   18.7120 H   0  0  0  0  0  0  0  0  0  0  0  0
    0.0690   18.7920   15.4030 H   0  0  0  0  0  0  0  0  0  0  0  0
    0.1770   19.2690   13.0040 H   0  0  0  0  0  0  0  0  0  0  0  0
    5.3270   23.3750   14.9450 H   0  0  0  0  0  0  0  0  0  0  0  0
    6.6640   22.4300   15.5470 H   0  0  0  0  0  0  0  0  0  0  0  0
    5.7930   21.9080   14.1330 H   0  0  0  0  0  0  0  0  0  0  0  0
    3.6670   23.5740   18.5360 H   0  0  0  0  0  0  0  0  0  0  0  0
    4.6920   24.1100   17.2050 H   0  0  0  0  0  0  0  0  0  0  0  0
    3.0790   23.4660   16.8740 H   0  0  0  0  0  0  0  0  0  0  0  0
    3.7970   15.1960   14.3340 H   0  0  0  0  0  0  0  0  0  0  0  0
    3.3110   16.4010   12.5750 H   0  0  0  0  0  0  0  0  0  0  0  0
    3.4510   19.5290    9.8070 H   0  0  0  0  0  0  0  0  0  0  0  0
    4.9190   18.5690    8.0990 H   0  0  0  0  0  0  0  0  0  0  0  0
    1.8830   15.6560   10.6270 H   0  0  0  0  0  0  0  0  0  0  0  0
    5.0770   16.4840    6.4190 H   0  0  0  0  0  0  0  0  0  0  0  0
    6.2380   16.1100    7.7000 H   0  0  0  0  0  0  0  0  0  0  0  0
    5.0220   14.9160    7.2300 H   0  0  0  0  0  0  0  0  0  0  0  0
    3.3800   14.6950    8.9430 H   0  0  0  0  0  0  0  0  0  0  0  0
  1  2  2  0  0  0  0
  2  3  1  0  0  0  0
  2  4  1  0  0  0  0
  3  5  2  0  0  0  0
  3 10  1  0  0  0  0
  4  6  1  0  0  0  0
  4  9  1  0  0  0  0
  5  7  1  0  0  0  0
  5 11  1  0  0  0  0
  6  7  2  0  0  0  0
  6  8  1  0  0  0  0
  8 14  1  0  0  0  0
  8 19  2  0  0  0  0
  9 12  1  0  0  0  0
  9 37  1  0  0  0  0
  9 38  1  0  0  0  0
 10 39  1  0  0  0  0
 10 40  1  0  0  0  0
 10 41  1  0  0  0  0
 11 42  1  0  0  0  0
 11 43  1  0  0  0  0
 11 44  1  0  0  0  0
 12 13  1  0  0  0  0
 12 15  1  0  0  0  0
 12 45  1  0  0  0  0
 13 20  1  0  0  0  0
 13 46  1  0  0  0  0
 13 47  1  0  0  0  0
 14 16  2  0  0  0  0
 14 48  1  0  0  0  0
 15 18  2  0  0  0  0
 15 21  1  0  0  0  0
 16 17  1  0  0  0  0
 16 49  1  0  0  0  0
 17 24  1  0  0  0  0
 17 28  2  0  0  0  0
 19 25  1  0  0  0  0
 19 28  1  0  0  0  0
 20 21  1  0  0  0  0
 20 23  1  0  0  0  0
 20 27  1  0  0  0  0
 21 22  1  0  0  0  0
 22 50  1  0  0  0  0
 22 51  1  0  0  0  0
 22 52  1  0  0  0  0
 23 53  1  0  0  0  0
 23 54  1  0  0  0  0
 23 55  1  0  0  0  0
 24 26  1  0  0  0  0
 25 56  1  0  0  0  0
 26 29  1  0  0  0  0
 26 32  2  0  0  0  0
 27 31  2  0  0  0  0
 27 33  1  0  0  0  0
 28 57  1  0  0  0  0
 29 30  2  0  0  0  0
 29 58  1  0  0  0  0
 30 34  1  0  0  0  0
 30 59  1  0  0  0  0
 32 36  1  0  0  0  0
 32 60  1  0  0  0  0
 34 35  1  0  0  0  0
 34 36  2  0  0  0  0
 35 61  1  0  0  0  0
 35 62  1  0  0  0  0
 35 63  1  0  0  0  0
 36 64  1  0  0  0  0
M  CHG  1  33  -1
M  END
> <rseq>
1

> <mseq>
472

> <S>
-6.390146

> <rmsd_refine>
0.8963538

> <E_conf>
-56.30364

> <E_score1>
-13.57185

> <E_refine>
-32.32923

> <E_score2>
-6.390146

>  <$File>
outputs/pdb_4j58_cleaned.pdb_2024_06_17__22_47_40_V2_BS398_MIN1_/SDF/sdf_db.sdf

> <Rec_index>
1

>  <PLIF_raw>
[33,1872,125,7,3.310478935]

> <FP:PLIF>
13

>  <PLIF_ligidx>
33

$$$$
436
  MOE2022           3D

 63 66  0  0  1  0  0  0  0  0999 V2000
    7.2880   21.0770   19.4040 C   0  0  0  0  0  0  0  0  0  0  0  0
    6.4820   19.9930   19.0770 C   0  0  0  0  0  0  0  0  0  0  0  0
    5.1780   20.2140   18.6380 C   0  0  0  0  0  0  0  0  0  0  0  0
    4.4360   19.1120   18.2500 O   0  0  0  0  0  0  0  0  0  0  0  0
    3.2970   19.1430   17.3280 C   0  0  1  0  0  0  0  0  0  0  0  0
    4.6620   21.5110   18.5660 C   0  0  0  0  0  0  0  0  0  0  0  0
    6.7880   22.3720   19.3080 C   0  0  0  0  0  0  0  0  0  0  0  0
    5.4760   22.5890   18.8950 C   0  0  0  0  0  0  0  0  0  0  0  0
    3.7280   19.5170   15.9030 C   0  0  0  0  0  0  0  0  0  0  0  0
    4.5460   20.4210   15.7320 O   0  0  0  0  0  0  0  0  0  0  0  0
    2.5020   17.8250   17.4320 C   0  0  2  0  0  0  0  0  0  0  0  0
    3.1420   18.9230   14.8360 N   0  0  0  0  0  0  0  0  0  0  0  0
    1.4700   17.6890   16.2920 C   0  0  2  0  0  0  0  0  0  0  0  0
    2.2970   17.7140   14.9770 C   0  0  1  0  0  0  0  0  0  0  0  0
    1.8880   17.7400   18.7080 O   0  0  0  0  0  0  0  0  0  0  0  0
    3.3570   19.4590   13.4700 C   0  0  0  0  0  0  0  0  0  0  0  0
    0.5040   18.8190   16.3080 N   0  0  0  0  0  0  0  0  0  0  0  0
    0.7330   16.3360   16.4300 C   0  0  0  0  0  0  0  0  0  0  0  0
   -0.4330   16.2440   15.6320 O   0  0  0  0  0  0  0  0  0  0  0  0
    1.4530   17.5510   13.7910 O   0  0  0  0  0  0  0  0  0  0  0  0
    1.5000   16.2960   13.0150 C   0  0  2  0  0  0  0  0  0  0  0  0
    2.9410   15.7680   12.7770 C   0  0  0  0  0  0  0  0  0  0  0  0
    0.7940   16.5110   11.6980 C   0  0  0  0  0  0  0  0  0  0  0  0
   -0.0870   15.7720   11.2610 O   0  0  0  0  0  0  0  0  0  0  0  0
    3.1370   14.9750   11.4610 C   0  0  2  0  0  0  0  0  0  0  0  0
    1.4730   17.3120   10.8740 O   0  0  0  0  0  0  0  0  0  0  0  0
    2.1500   16.7230    9.7470 C   0  0  1  0  0  0  0  0  0  0  0  0
    4.2450   14.0770   11.6170 O   0  0  0  0  0  0  0  0  0  0  0  0
    2.5920   17.8540    8.8040 C   0  0  0  0  0  0  0  0  0  0  0  0
    3.5090   17.3550    7.6830 C   0  0  1  0  0  0  0  0  0  0  0  0
    3.3250   15.8470   10.2070 C   0  0  0  0  0  0  0  0  0  0  0  0
    3.9710   18.4790    6.8980 O   0  0  0  0  0  0  0  0  0  0  0  0
    4.4690   15.8040    9.4790 C   0  0  0  0  0  0  0  0  0  0  0  0
    4.6570   16.5280    8.2380 C   0  0  0  0  0  0  0  0  0  0  0  0
    5.6930   16.4160    7.6250 O   0  0  0  0  0  0  0  0  0  0  0  0
    8.2870   20.9190   19.7160 H   0  0  0  0  0  0  0  0  0  0  0  0
    6.8640   19.0090   19.1460 H   0  0  0  0  0  0  0  0  0  0  0  0
    2.6300   19.9210   17.6710 H   0  0  0  0  0  0  0  0  0  0  0  0
    3.6660   21.6860   18.2550 H   0  0  0  0  0  0  0  0  0  0  0  0
    7.4060   23.1950   19.5510 H   0  0  0  0  0  0  0  0  0  0  0  0
    5.0990   23.5760   18.8270 H   0  0  0  0  0  0  0  0  0  0  0  0
    3.2140   17.0030   17.3480 H   0  0  0  0  0  0  0  0  0  0  0  0
    2.9640   16.8650   15.0140 H   0  0  0  0  0  0  0  0  0  0  0  0
    1.3060   18.4980   18.8200 H   0  0  0  0  0  0  0  0  0  0  0  0
    3.9870   20.3370   13.4440 H   0  0  0  0  0  0  0  0  0  0  0  0
    3.8190   18.7310   12.8210 H   0  0  0  0  0  0  0  0  0  0  0  0
    2.4200   19.7490   13.0130 H   0  0  0  0  0  0  0  0  0  0  0  0
    0.9980   19.6910   16.1810 H   0  0  0  0  0  0  0  0  0  0  0  0
   -0.1420   18.7030   15.5390 H   0  0  0  0  0  0  0  0  0  0  0  0
    1.4160   15.5410   16.1400 H   0  0  0  0  0  0  0  0  0  0  0  0
    0.4330   16.1740   17.4650 H   0  0  0  0  0  0  0  0  0  0  0  0
   -1.0730   16.8820   15.9590 H   0  0  0  0  0  0  0  0  0  0  0  0
    0.9460   15.5490   13.5680 H   0  0  0  0  0  0  0  0  0  0  0  0
    3.6390   16.6000   12.7610 H   0  0  0  0  0  0  0  0  0  0  0  0
    3.1970   15.1260   13.6210 H   0  0  0  0  0  0  0  0  0  0  0  0
    2.2800   14.3320   11.3090 H   0  0  0  0  0  0  0  0  0  0  0  0
    1.4410   16.0990    9.2180 H   0  0  0  0  0  0  0  0  0  0  0  0
    4.0700   13.4270   12.3220 H   0  0  0  0  0  0  0  0  0  0  0  0
    1.7100   18.3300    8.3740 H   0  0  0  0  0  0  0  0  0  0  0  0
    3.1350   18.5990    9.3880 H   0  0  0  0  0  0  0  0  0  0  0  0
    2.9300   16.7240    7.0210 H   0  0  0  0  0  0  0  0  0  0  0  0
    3.2170   18.9570    6.5170 H   0  0  0  0  0  0  0  0  0  0  0  0
    5.2950   15.2100    9.7740 H   0  0  0  0  0  0  0  0  0  0  0  0
  1  2  1  0  0  0  0
  1  7  2  0  0  0  0
  1 36  1  0  0  0  0
  2  3  2  0  0  0  0
  2 37  1  0  0  0  0
  3  4  1  0  0  0  0
  3  6  1  0  0  0  0
  4  5  1  0  0  0  0
  5  9  1  0  0  0  0
  5 11  1  0  0  0  0
  5 38  1  0  0  0  0
  6  8  2  0  0  0  0
  6 39  1  0  0  0  0
  7  8  1  0  0  0  0
  7 40  1  0  0  0  0
  8 41  1  0  0  0  0
  9 10  2  0  0  0  0
  9 12  1  0  0  0  0
 11 13  1  0  0  0  0
 11 15  1  0  0  0  0
 11 42  1  0  0  0  0
 12 14  1  0  0  0  0
 12 16  1  0  0  0  0
 13 14  1  0  0  0  0
 13 17  1  0  0  0  0
 13 18  1  0  0  0  0
 14 20  1  0  0  0  0
 14 43  1  0  0  0  0
 15 44  1  0  0  0  0
 16 45  1  0  0  0  0
 16 46  1  0  0  0  0
 16 47  1  0  0  0  0
 17 48  1  0  0  0  0
 17 49  1  0  0  0  0
 18 19  1  0  0  0  0
 18 50  1  0  0  0  0
 18 51  1  0  0  0  0
 19 52  1  0  0  0  0
 20 21  1  0  0  0  0
 21 22  1  0  0  0  0
 21 23  1  0  0  0  0
 21 53  1  0  0  0  0
 22 25  1  0  0  0  0
 22 54  1  0  0  0  0
 22 55  1  0  0  0  0
 23 24  2  0  0  0  0
 23 26  1  0  0  0  0
 25 28  1  0  0  0  0
 25 31  1  0  0  0  0
 25 56  1  0  0  0  0
 26 27  1  0  0  0  0
 27 29  1  0  0  0  0
 27 31  1  0  0  0  0
 27 57  1  0  0  0  0
 28 58  1  0  0  0  0
 29 30  1  0  0  0  0
 29 59  1  0  0  0  0
 29 60  1  0  0  0  0
 30 32  1  0  0  0  0
 30 34  1  0  0  0  0
 30 61  1  0  0  0  0
 31 33  2  0  0  0  0
 32 62  1  0  0  0  0
 33 34  1  0  0  0  0
 33 63  1  0  0  0  0
 34 35  2  0  0  0  0
M  END
> <rseq>
1

> <mseq>
437

> <S>
-5.968635

> <rmsd_refine>
1.544875

> <E_conf>
124.7782

> <E_score1>
-12.00743

> <E_refine>
-33.76246

> <E_score2>
-5.968635

>  <$File>
outputs/pdb_4j58_cleaned.pdb_2024_06_17__22_47_40_V2_BS398_MIN1_/SDF/sdf_db.sdf

> <Rec_index>
1

>  <PLIF_raw>
[28,1056,70,3,2.2]

> <FP:PLIF>
3 4

>  <PLIF_ligidx>
[28,28]

$$$$
437
  MOE2022           3D

 64 67  0  0  1  0  0  0  0  0999 V2000
    6.0760   14.5960   10.0620 C   0  0  0  0  0  0  0  0  0  0  0  0
    5.6970   15.8350    9.5580 C   0  0  0  0  0  0  0  0  0  0  0  0
    4.4620   16.3780    9.8940 C   0  0  0  0  0  0  0  0  0  0  0  0
    3.5830   15.6800   10.7340 C   0  0  0  0  0  0  0  0  0  0  0  0
    3.9720   14.4260   11.2250 C   0  0  0  0  0  0  0  0  0  0  0  0
    5.2120   13.8910   10.8920 C   0  0  0  0  0  0  0  0  0  0  0  0
    2.2640   16.2340   11.0410 C   0  0  0  0  0  0  0  0  0  0  0  0
    1.7940   16.2790   12.3480 N   0  0  0  0  0  0  0  0  0  0  0  0
    1.5360   16.6610   10.1470 O   0  0  0  0  0  0  0  0  0  0  0  0
    2.6820   16.3320   13.5250 C   0  0  0  0  0  0  0  0  0  0  0  0
    0.3910   16.6270   12.6490 C   0  0  0  0  0  0  0  0  0  0  0  0
    2.1150   15.5610   14.7290 C   0  0  0  0  0  0  0  0  0  0  0  0
   -0.1690   15.8540   13.8560 C   0  0  0  0  0  0  0  0  0  0  0  0
    0.7180   15.9270   15.0290 N   0  0  0  0  0  0  0  0  0  0  0  0
    0.2170   16.0770   16.3170 C   0  0  0  0  0  0  0  0  0  0  0  0
   -0.9790   15.8630   16.5030 O   0  0  0  0  0  0  0  0  0  0  0  0
    1.0930   16.4970   17.4120 C   0  0  0  0  0  0  0  0  0  0  0  0
    2.0190   17.5290   17.2260 C   0  0  0  0  0  0  0  0  0  0  0  0
    0.9840   15.8980   18.6780 C   0  0  0  0  0  0  0  0  0  0  0  0
    1.8190   16.2820   19.7260 C   0  0  0  0  0  0  0  0  0  0  0  0
    2.8520   17.9070   18.2790 C   0  0  0  0  0  0  0  0  0  0  0  0
    2.7700   17.2710   19.5150 C   0  0  0  0  0  0  0  0  0  0  0  0
    1.6830   15.6600   21.0960 C   0  0  0  0  0  0  0  0  0  0  0  0
    3.7550   18.9920   18.1940 N   0  0  0  0  0  0  0  0  0  0  0  0
    4.3430   19.5390   17.0790 C   0  0  0  0  0  0  0  0  0  0  0  0
    4.2710   18.9870   15.9950 O   0  0  0  0  0  0  0  0  0  0  0  0
    5.0590   20.8610   17.3280 C   0  0  2  0  0  0  0  0  0  0  0  0
    4.0970   21.9630   17.8160 C   0  0  0  0  0  0  0  0  0  0  0  0
    5.8790   21.3550   16.1460 C   0  0  0  0  0  0  0  0  0  0  0  0
    7.2650   21.4870   16.2650 C   0  0  0  0  0  0  0  0  0  0  0  0
    5.2590   21.7050   14.9460 C   0  0  0  0  0  0  0  0  0  0  0  0
    6.0270   22.1870   13.8900 C   0  0  0  0  0  0  0  0  0  0  0  0
    5.4140   22.5250   12.7200 O   0  0  0  0  0  0  0  0  0  0  0  0
    7.4050   22.3280   14.0070 C   0  0  0  0  0  0  0  0  0  0  0  0
    8.0220   21.9720   15.2020 C   0  0  0  0  0  0  0  0  0  0  0  0
    7.0180   14.1840    9.8110 H   0  0  0  0  0  0  0  0  0  0  0  0
    6.3490   16.3600    8.9090 H   0  0  0  0  0  0  0  0  0  0  0  0
    4.1800   17.3220    9.5040 H   0  0  0  0  0  0  0  0  0  0  0  0
    3.3150   13.8760   11.8490 H   0  0  0  0  0  0  0  0  0  0  0  0
    5.5000   12.9430   11.2650 H   0  0  0  0  0  0  0  0  0  0  0  0
    3.6660   15.9550   13.3010 H   0  0  0  0  0  0  0  0  0  0  0  0
    2.8270   17.3650   13.8100 H   0  0  0  0  0  0  0  0  0  0  0  0
    0.3240   17.6890   12.8460 H   0  0  0  0  0  0  0  0  0  0  0  0
   -0.2490   16.4430   11.7960 H   0  0  0  0  0  0  0  0  0  0  0  0
    2.1520   14.5050   14.5010 H   0  0  0  0  0  0  0  0  0  0  0  0
    2.7660   15.6890   15.5810 H   0  0  0  0  0  0  0  0  0  0  0  0
   -1.1560   16.2330   14.0850 H   0  0  0  0  0  0  0  0  0  0  0  0
   -0.3040   14.8190   13.5780 H   0  0  0  0  0  0  0  0  0  0  0  0
    2.0600   18.0320   16.2960 H   0  0  0  0  0  0  0  0  0  0  0  0
    0.2580   15.1420   18.8340 H   0  0  0  0  0  0  0  0  0  0  0  0
    3.4190   17.5580   20.2980 H   0  0  0  0  0  0  0  0  0  0  0  0
    2.5790   15.8220   21.6950 H   0  0  0  0  0  0  0  0  0  0  0  0
    0.8340   16.0950   21.6240 H   0  0  0  0  0  0  0  0  0  0  0  0
    1.5300   14.5890   21.0100 H   0  0  0  0  0  0  0  0  0  0  0  0
    3.9410   19.4800   19.0840 H   0  0  0  0  0  0  0  0  0  0  0  0
    5.7400   20.6840   18.1500 H   0  0  0  0  0  0  0  0  0  0  0  0
    4.6390   22.8960   17.9790 H   0  0  0  0  0  0  0  0  0  0  0  0
    3.3130   22.1470   17.0810 H   0  0  0  0  0  0  0  0  0  0  0  0
    3.6220   21.6830   18.7560 H   0  0  0  0  0  0  0  0  0  0  0  0
    7.7510   21.2230   17.1690 H   0  0  0  0  0  0  0  0  0  0  0  0
    4.2090   21.6080   14.8340 H   0  0  0  0  0  0  0  0  0  0  0  0
    6.0400   22.9490   12.1010 H   0  0  0  0  0  0  0  0  0  0  0  0
    7.9750   22.7050   13.1990 H   0  0  0  0  0  0  0  0  0  0  0  0
    9.0700   22.0710   15.3110 H   0  0  0  0  0  0  0  0  0  0  0  0
  1  2  2  0  0  0  0
  1  6  1  0  0  0  0
  1 36  1  0  0  0  0
  2  3  1  0  0  0  0
  2 37  1  0  0  0  0
  3  4  2  0  0  0  0
  3 38  1  0  0  0  0
  4  5  1  0  0  0  0
  4  7  1  0  0  0  0
  5  6  2  0  0  0  0
  5 39  1  0  0  0  0
  6 40  1  0  0  0  0
  7  8  1  0  0  0  0
  7  9  2  0  0  0  0
  8 10  1  0  0  0  0
  8 11  1  0  0  0  0
 10 12  1  0  0  0  0
 10 41  1  0  0  0  0
 10 42  1  0  0  0  0
 11 13  1  0  0  0  0
 11 43  1  0  0  0  0
 11 44  1  0  0  0  0
 12 14  1  0  0  0  0
 12 45  1  0  0  0  0
 12 46  1  0  0  0  0
 13 14  1  0  0  0  0
 13 47  1  0  0  0  0
 13 48  1  0  0  0  0
 14 15  1  0  0  0  0
 15 16  2  0  0  0  0
 15 17  1  0  0  0  0
 17 18  2  0  0  0  0
 17 19  1  0  0  0  0
 18 21  1  0  0  0  0
 18 49  1  0  0  0  0
 19 20  2  0  0  0  0
 19 50  1  0  0  0  0
 20 22  1  0  0  0  0
 20 23  1  0  0  0  0
 21 22  2  0  0  0  0
 21 24  1  0  0  0  0
 22 51  1  0  0  0  0
 23 52  1  0  0  0  0
 23 53  1  0  0  0  0
 23 54  1  0  0  0  0
 24 25  1  0  0  0  0
 24 55  1  0  0  0  0
 25 26  2  0  0  0  0
 25 27  1  0  0  0  0
 27 28  1  0  0  0  0
 27 29  1  0  0  0  0
 27 56  1  0  0  0  0
 28 57  1  0  0  0  0
 28 58  1  0  0  0  0
 28 59  1  0  0  0  0
 29 30  1  0  0  0  0
 29 31  2  0  0  0  0
 30 35  2  0  0  0  0
 30 60  1  0  0  0  0
 31 32  1  0  0  0  0
 31 61  1  0  0  0  0
 32 33  1  0  0  0  0
 32 34  2  0  0  0  0
 33 62  1  0  0  0  0
 34 35  1  0  0  0  0
 34 63  1  0  0  0  0
 35 64  1  0  0  0  0
M  END
> <rseq>
1

> <mseq>
438

> <S>
-7.010825

> <rmsd_refine>
1.736398

> <E_conf>
17.02483

> <E_score1>
-9.958553

> <E_refine>
-40.1104

> <E_score2>
-7.010825

>  <$File>
outputs/pdb_4j58_cleaned.pdb_2024_06_17__22_47_40_V2_BS398_MIN1_/SDF/sdf_db.sdf

> <Rec_index>
1

>  <PLIF_raw>
[24,1504,101,3,0.7]

> <FP:PLIF>
8

>  <PLIF_ligidx>
24

$$$$
438
  MOE2022           3D

 64 67  0  0  1  0  0  0  0  0999 V2000
    6.1680   14.4080   10.1100 C   0  0  0  0  0  0  0  0  0  0  0  0
    5.8640   15.6890    9.6600 C   0  0  0  0  0  0  0  0  0  0  0  0
    4.6210   16.2470    9.9340 C   0  0  0  0  0  0  0  0  0  0  0  0
    3.6620   15.5260   10.6570 C   0  0  0  0  0  0  0  0  0  0  0  0
    3.9760   14.2330   11.0960 C   0  0  0  0  0  0  0  0  0  0  0  0
    5.2230   13.6800   10.8240 C   0  0  0  0  0  0  0  0  0  0  0  0
    2.3430   16.1080   10.8970 C   0  0  0  0  0  0  0  0  0  0  0  0
    1.8350   16.2320   12.1880 N   0  0  0  0  0  0  0  0  0  0  0  0
    1.6580   16.5090    9.9590 O   0  0  0  0  0  0  0  0  0  0  0  0
    2.7060   16.2180   13.3860 C   0  0  0  0  0  0  0  0  0  0  0  0
    0.5090   16.8550   12.4010 C   0  0  0  0  0  0  0  0  0  0  0  0
    1.9770   15.7890   14.6720 C   0  0  0  0  0  0  0  0  0  0  0  0
   -0.1840   16.4040   13.6960 C   0  0  0  0  0  0  0  0  0  0  0  0
    0.7050   16.5070   14.8620 N   0  0  0  0  0  0  0  0  0  0  0  0
    0.3050   17.0980   16.0560 C   0  0  0  0  0  0  0  0  0  0  0  0
   -0.8710   17.4470   16.1670 O   0  0  0  0  0  0  0  0  0  0  0  0
    1.2640   17.2900   17.1360 C   0  0  0  0  0  0  0  0  0  0  0  0
    2.3780   18.1180   16.9490 C   0  0  0  0  0  0  0  0  0  0  0  0
    1.0840   16.6630   18.3870 C   0  0  0  0  0  0  0  0  0  0  0  0
   -0.0490   15.8770   18.6090 N   0  0  0  0  0  0  0  0  0  0  0  0
    2.0270   16.8190   19.4170 C   0  0  0  0  0  0  0  0  0  0  0  0
    3.1350   17.6270   19.1980 C   0  0  0  0  0  0  0  0  0  0  0  0
    3.3040   18.2900   17.9730 C   0  0  0  0  0  0  0  0  0  0  0  0
    4.4410   19.1140   17.6900 N   0  0  0  0  0  0  0  0  0  0  0  0
    5.3080   19.7320   18.5680 C   0  0  0  0  0  0  0  0  0  0  0  0
    1.8540   16.1260   20.7570 C   0  0  0  0  0  0  0  0  0  0  0  0
    5.0610   19.8010   19.7610 O   0  0  0  0  0  0  0  0  0  0  0  0
    6.5800   20.3200   17.9550 C   0  0  2  0  0  0  0  0  0  0  0  0
    7.7130   20.4820   18.9720 C   0  0  0  0  0  0  0  0  0  0  0  0
    6.4190   21.7270   17.3790 C   0  0  1  0  0  0  0  0  0  0  0  0
    7.7640   21.9690   19.3450 C   0  0  0  0  0  0  0  0  0  0  0  0
    5.1560   21.9210   16.5350 C   0  0  0  0  0  0  0  0  0  0  0  0
    5.0740   21.2070   15.5090 O   0  0  0  0  0  0  0  0  0  0  0  0
    6.6120   22.6490   18.5840 C   0  0  0  0  0  0  0  0  0  0  0  0
    4.3120   22.7630   16.9080 O   0  5  0  0  0  0  0  0  0  0  0  0
    7.1170   13.9840    9.9080 H   0  0  0  0  0  0  0  0  0  0  0  0
    6.5780   16.2340    9.1010 H   0  0  0  0  0  0  0  0  0  0  0  0
    4.3940   17.2210    9.5840 H   0  0  0  0  0  0  0  0  0  0  0  0
    3.2570   13.6680   11.6330 H   0  0  0  0  0  0  0  0  0  0  0  0
    5.4550   12.7010   11.1550 H   0  0  0  0  0  0  0  0  0  0  0  0
    3.5560   15.5680   13.2510 H   0  0  0  0  0  0  0  0  0  0  0  0
    3.1150   17.2090   13.5320 H   0  0  0  0  0  0  0  0  0  0  0  0
    0.6260   17.9310   12.4230 H   0  0  0  0  0  0  0  0  0  0  0  0
   -0.1550   16.6480   11.5720 H   0  0  0  0  0  0  0  0  0  0  0  0
    1.7690   14.7290   14.6120 H   0  0  0  0  0  0  0  0  0  0  0  0
    2.6410   15.8980   15.5160 H   0  0  0  0  0  0  0  0  0  0  0  0
   -1.0880   16.9820   13.8260 H   0  0  0  0  0  0  0  0  0  0  0  0
   -0.5060   15.3770   13.5870 H   0  0  0  0  0  0  0  0  0  0  0  0
    2.5180   18.6170   16.0240 H   0  0  0  0  0  0  0  0  0  0  0  0
   -0.3410   15.8090   19.5940 H   0  0  0  0  0  0  0  0  0  0  0  0
   -0.8240   16.0530   17.9480 H   0  0  0  0  0  0  0  0  0  0  0  0
    3.8500   17.7370   19.9650 H   0  0  0  0  0  0  0  0  0  0  0  0
    4.6420   19.2860   16.6910 H   0  0  0  0  0  0  0  0  0  0  0  0
    1.6690   15.0620   20.6150 H   0  0  0  0  0  0  0  0  0  0  0  0
    2.7470   16.2300   21.3730 H   0  0  0  0  0  0  0  0  0  0  0  0
    1.0110   16.5580   21.2970 H   0  0  0  0  0  0  0  0  0  0  0  0
    6.9090   19.6890   17.1480 H   0  0  0  0  0  0  0  0  0  0  0  0
    7.5710   19.8580   19.8550 H   0  0  0  0  0  0  0  0  0  0  0  0
    8.6580   20.2050   18.5020 H   0  0  0  0  0  0  0  0  0  0  0  0
    7.2720   21.8820   16.7140 H   0  0  0  0  0  0  0  0  0  0  0  0
    7.6540   22.1170   20.4190 H   0  0  0  0  0  0  0  0  0  0  0  0
    8.7150   22.3700   18.9980 H   0  0  0  0  0  0  0  0  0  0  0  0
    6.8710   23.6620   18.2740 H   0  0  0  0  0  0  0  0  0  0  0  0
    5.7100   22.6520   19.1990 H   0  0  0  0  0  0  0  0  0  0  0  0
  1  2  2  0  0  0  0
  1  6  1  0  0  0  0
  1 36  1  0  0  0  0
  2  3  1  0  0  0  0
  2 37  1  0  0  0  0
  3  4  2  0  0  0  0
  3 38  1  0  0  0  0
  4  5  1  0  0  0  0
  4  7  1  0  0  0  0
  5  6  2  0  0  0  0
  5 39  1  0  0  0  0
  6 40  1  0  0  0  0
  7  8  1  0  0  0  0
  7  9  2  0  0  0  0
  8 10  1  0  0  0  0
  8 11  1  0  0  0  0
 10 12  1  0  0  0  0
 10 41  1  0  0  0  0
 10 42  1  0  0  0  0
 11 13  1  0  0  0  0
 11 43  1  0  0  0  0
 11 44  1  0  0  0  0
 12 14  1  0  0  0  0
 12 45  1  0  0  0  0
 12 46  1  0  0  0  0
 13 14  1  0  0  0  0
 13 47  1  0  0  0  0
 13 48  1  0  0  0  0
 14 15  1  0  0  0  0
 15 16  2  0  0  0  0
 15 17  1  0  0  0  0
 17 18  2  0  0  0  0
 17 19  1  0  0  0  0
 18 23  1  0  0  0  0
 18 49  1  0  0  0  0
 19 20  1  0  0  0  0
 19 21  2  0  0  0  0
 20 50  1  0  0  0  0
 20 51  1  0  0  0  0
 21 22  1  0  0  0  0
 21 26  1  0  0  0  0
 22 23  2  0  0  0  0
 22 52  1  0  0  0  0
 23 24  1  0  0  0  0
 24 25  1  0  0  0  0
 24 53  1  0  0  0  0
 25 27  2  0  0  0  0
 25 28  1  0  0  0  0
 26 54  1  0  0  0  0
 26 55  1  0  0  0  0
 26 56  1  0  0  0  0
 28 29  1  0  0  0  0
 28 30  1  0  0  0  0
 28 57  1  0  0  0  0
 29 31  1  0  0  0  0
 29 58  1  0  0  0  0
 29 59  1  0  0  0  0
 30 32  1  0  0  0  0
 30 34  1  0  0  0  0
 30 60  1  0  0  0  0
 31 34  1  0  0  0  0
 31 61  1  0  0  0  0
 31 62  1  0  0  0  0
 32 33  2  0  0  0  0
 32 35  1  0  0  0  0
 34 63  1  0  0  0  0
 34 64  1  0  0  0  0
M  CHG  1  35  -1
M  END
> <rseq>
1

> <mseq>
439

> <S>
-7.439907

> <rmsd_refine>
1.259838

> <E_conf>
-70.41649

> <E_score1>
-11.43081

> <E_refine>
-41.96081

> <E_score2>
-7.439907

>  <$File>
outputs/pdb_4j58_cleaned.pdb_2024_06_17__22_47_40_V2_BS398_MIN1_/SDF/sdf_db.sdf

> <Rec_index>
1

>  <PLIF_raw>
[[27,33,1,6,5,4,3,2],[1499,826,820,820,820,820,820,820],[101,54,54,54,54,54,54,54],[4,7,10,10,10,10,10,10],[2.6,3.351806957,0.6,0.6,0.6,0.6,0.6,0.6]]

> <FP:PLIF>
1 2 11 12

>  <PLIF_ligidx>
[33,[1,6,5,4,3,2],27,27]

$$$$
439
  MOE2022           3D

 58 61  0  0  1  0  0  0  0  0999 V2000
    1.3800   15.9000   19.3320 C   0  0  0  0  0  0  0  0  0  0  0  0
    1.9690   16.3750   18.1620 C   0  0  0  0  0  0  0  0  0  0  0  0
   -0.0030   15.7940   19.4230 C   0  0  0  0  0  0  0  0  0  0  0  0
   -0.7820   16.1700   18.3310 C   0  0  0  0  0  0  0  0  0  0  0  0
   -2.1400   16.0660   18.4050 O   0  0  0  0  0  0  0  0  0  0  0  0
    1.1820   16.7640   17.0730 C   0  0  0  0  0  0  0  0  0  0  0  0
   -0.2040   16.6580   17.1620 C   0  0  0  0  0  0  0  0  0  0  0  0
    1.8200   17.2920   15.7950 C   0  0  1  0  0  0  0  0  0  0  0  0
    2.4640   18.6160   15.8900 N   0  0  0  0  0  0  0  0  0  0  0  0
    2.3530   19.4340   17.1330 C   0  0  0  0  0  0  0  0  0  0  0  0
    2.9170   19.2700   14.7490 C   0  0  0  0  0  0  0  0  0  0  0  0
    3.1850   20.4710   14.7830 O   0  0  0  0  0  0  0  0  0  0  0  0
    2.7420   16.3220   15.3050 O   0  0  0  0  0  0  0  0  0  0  0  0
    2.9400   16.1890   13.9600 C   0  0  0  0  0  0  0  0  0  0  0  0
    2.9900   14.8980   13.4460 C   0  0  0  0  0  0  0  0  0  0  0  0
    3.1240   17.2910   13.1130 C   0  0  0  0  0  0  0  0  0  0  0  0
    3.6790   19.6860   17.8300 C   0  0  0  0  0  0  0  0  0  0  0  0
    3.0750   18.6490   13.5220 N   0  0  0  0  0  0  0  0  0  0  0  0
    3.2900   14.6960   12.1020 C   0  0  0  0  0  0  0  0  0  0  0  0
    3.5250   15.7820   11.2600 C   0  0  0  0  0  0  0  0  0  0  0  0
    4.2400   21.0930   17.9230 C   0  0  0  0  0  0  0  0  0  0  0  0
    3.4190   17.0780   11.7640 C   0  0  0  0  0  0  0  0  0  0  0  0
    3.9280   15.5430    9.8160 C   0  0  0  0  0  0  0  0  0  0  0  0
    4.2340   18.7820   18.3870 O   0  0  0  0  0  0  0  0  0  0  0  0
    5.6990   21.2370   17.5060 C   0  0  0  0  0  0  0  0  0  0  0  0
    5.3910   15.1830    9.6410 C   0  0  0  0  0  0  0  0  0  0  0  0
    5.9590   21.6550   16.2000 C   0  0  0  0  0  0  0  0  0  0  0  0
    5.6660   14.1220    9.0370 O   0  0  0  0  0  0  0  0  0  0  0  0
    6.7770   20.9760   18.3730 C   0  0  0  0  0  0  0  0  0  0  0  0
    7.2700   21.8220   15.7710 C   0  0  0  0  0  0  0  0  0  0  0  0
    7.5150   22.2020   14.4840 O   0  0  0  0  0  0  0  0  0  0  0  0
    6.2440   15.9820   10.0870 O   0  5  0  0  0  0  0  0  0  0  0  0
    6.6150   20.4880   19.8020 C   0  0  0  0  0  0  0  0  0  0  0  0
    8.0860   21.1700   17.9240 C   0  0  0  0  0  0  0  0  0  0  0  0
    8.3370   21.6020   16.6290 C   0  0  0  0  0  0  0  0  0  0  0  0
    1.9900   15.6160   20.1500 H   0  0  0  0  0  0  0  0  0  0  0  0
    3.0240   16.4390   18.1010 H   0  0  0  0  0  0  0  0  0  0  0  0
   -0.4570   15.4320   20.3080 H   0  0  0  0  0  0  0  0  0  0  0  0
   -2.4160   15.7080   19.2710 H   0  0  0  0  0  0  0  0  0  0  0  0
   -0.8210   16.9430   16.3490 H   0  0  0  0  0  0  0  0  0  0  0  0
    1.0330   17.3700   15.0560 H   0  0  0  0  0  0  0  0  0  0  0  0
    1.8840   20.3790   16.8930 H   0  0  0  0  0  0  0  0  0  0  0  0
    1.6660   19.0060   17.8460 H   0  0  0  0  0  0  0  0  0  0  0  0
    2.8080   14.0680   14.0750 H   0  0  0  0  0  0  0  0  0  0  0  0
    3.2810   19.3180   12.7650 H   0  0  0  0  0  0  0  0  0  0  0  0
    3.3520   13.7090   11.7200 H   0  0  0  0  0  0  0  0  0  0  0  0
    3.6370   21.7540   17.3160 H   0  0  0  0  0  0  0  0  0  0  0  0
    4.0940   21.4760   18.9220 H   0  0  0  0  0  0  0  0  0  0  0  0
    3.5850   17.9060   11.1230 H   0  0  0  0  0  0  0  0  0  0  0  0
    3.3100   14.7620    9.3960 H   0  0  0  0  0  0  0  0  0  0  0  0
    3.7130   16.4200    9.2210 H   0  0  0  0  0  0  0  0  0  0  0  0
    5.1640   21.8540   15.5300 H   0  0  0  0  0  0  0  0  0  0  0  0
    8.4720   22.3570   14.3560 H   0  0  0  0  0  0  0  0  0  0  0  0
    7.0280   21.2220   20.4930 H   0  0  0  0  0  0  0  0  0  0  0  0
    5.5830   20.2980   20.0850 H   0  0  0  0  0  0  0  0  0  0  0  0
    7.1660   19.5570   19.9340 H   0  0  0  0  0  0  0  0  0  0  0  0
    8.9010   20.9870   18.5780 H   0  0  0  0  0  0  0  0  0  0  0  0
    9.3290   21.7570   16.2970 H   0  0  0  0  0  0  0  0  0  0  0  0
  1  2  2  0  0  0  0
  1  3  1  0  0  0  0
  1 36  1  0  0  0  0
  2  6  1  0  0  0  0
  2 37  1  0  0  0  0
  3  4  2  0  0  0  0
  3 38  1  0  0  0  0
  4  5  1  0  0  0  0
  4  7  1  0  0  0  0
  5 39  1  0  0  0  0
  6  7  2  0  0  0  0
  6  8  1  0  0  0  0
  7 40  1  0  0  0  0
  8  9  1  0  0  0  0
  8 13  1  0  0  0  0
  8 41  1  0  0  0  0
  9 10  1  0  0  0  0
  9 11  1  0  0  0  0
 10 17  1  0  0  0  0
 10 42  1  0  0  0  0
 10 43  1  0  0  0  0
 11 12  2  0  0  0  0
 11 18  1  0  0  0  0
 13 14  1  0  0  0  0
 14 15  2  0  0  0  0
 14 16  1  0  0  0  0
 15 19  1  0  0  0  0
 15 44  1  0  0  0  0
 16 18  1  0  0  0  0
 16 22  2  0  0  0  0
 17 21  1  0  0  0  0
 17 24  2  0  0  0  0
 18 45  1  0  0  0  0
 19 20  2  0  0  0  0
 19 46  1  0  0  0  0
 20 22  1  0  0  0  0
 20 23  1  0  0  0  0
 21 25  1  0  0  0  0
 21 47  1  0  0  0  0
 21 48  1  0  0  0  0
 22 49  1  0  0  0  0
 23 26  1  0  0  0  0
 23 50  1  0  0  0  0
 23 51  1  0  0  0  0
 25 27  2  0  0  0  0
 25 29  1  0  0  0  0
 26 28  2  0  0  0  0
 26 32  1  0  0  0  0
 27 30  1  0  0  0  0
 27 52  1  0  0  0  0
 29 33  1  0  0  0  0
 29 34  2  0  0  0  0
 30 31  1  0  0  0  0
 30 35  2  0  0  0  0
 31 53  1  0  0  0  0
 33 54  1  0  0  0  0
 33 55  1  0  0  0  0
 33 56  1  0  0  0  0
 34 35  1  0  0  0  0
 34 57  1  0  0  0  0
 35 58  1  0  0  0  0
M  CHG  1  32  -1
M  END
> <rseq>
1

> <mseq>
440

> <S>
-7.109953

> <rmsd_refine>
1.887332

> <E_conf>
-188.8737

> <E_score1>
-12.93885

> <E_refine>
-43.54963

> <E_score2>
-7.109953

>  <$File>
outputs/pdb_4j58_cleaned.pdb_2024_06_17__22_47_40_V2_BS398_MIN1_/SDF/sdf_db.sdf

> <Rec_index>
1

>  <PLIF_raw>
[[32,32,32,1,3,4,7,6,2],[823,823,829,1519,1519,1519,1519,1519,1519],[54,54,54,102,102,102,102,102,102],[2,7,7,10,10,10,10,10,10],[6.8,4.993551073,0.6427483737,0.5,0.5,0.5,0.5,0.5,0.5]]

> <FP:PLIF>
6 19 1 16 22

>  <PLIF_ligidx>
[32,32,[32,32],32,[1,3,4,7,6,2]]

$$$$
440
  MOE2022           3D

 60 63  0  0  1  0  0  0  0  0999 V2000
    3.1110   16.8230   18.9880 O   0  0  0  0  0  0  0  0  0  0  0  0
    2.0170   16.6180   18.4680 C   0  0  0  0  0  0  0  0  0  0  0  0
    0.8350   16.3460   19.2580 C   0  0  0  0  0  0  0  0  0  0  0  0
    1.9010   16.6630   17.0720 N   0  0  0  0  0  0  0  0  0  0  0  0
   -0.3570   15.9400   18.6400 C   0  0  0  0  0  0  0  0  0  0  0  0
    0.6670   16.3270   16.4250 C   0  0  0  0  0  0  0  0  0  0  0  0
   -1.5080   15.6300   19.3830 C   0  0  0  0  0  0  0  0  0  0  0  0
   -0.3850   15.8830   17.2430 N   0  0  0  0  0  0  0  0  0  0  0  0
    0.5080   16.4380   15.0770 C   0  0  0  0  0  0  0  0  0  0  0  0
    0.8520   16.5020   20.6500 C   0  0  0  0  0  0  0  0  0  0  0  0
    1.5810   16.9150   14.2490 C   0  0  0  0  0  0  0  0  0  0  0  0
   -2.7720   15.1360   18.6910 C   0  0  0  0  0  0  0  0  0  0  0  0
    3.0930   16.9700   16.2180 C   0  0  2  0  0  0  0  0  0  0  0  0
    3.9060   18.0650   16.7400 O   0  0  0  0  0  0  0  0  0  0  0  0
    1.2820   17.0910   12.9110 O   0  0  0  0  0  0  0  0  0  0  0  0
    2.8080   17.1780   14.7460 C   0  0  0  0  0  0  0  0  0  0  0  0
    1.9530   17.9950   11.9910 C   0  0  0  0  0  0  0  0  0  0  0  0
    3.5250   19.4640   16.5640 C   0  0  0  0  0  0  0  0  0  0  0  0
    4.4920   20.3290   17.3700 C   0  0  2  0  0  0  0  0  0  0  0  0
    2.5160   17.2710   10.7690 C   0  0  0  0  0  0  0  0  0  0  0  0
    3.8050   21.6900   17.4400 C   0  0  1  0  0  0  0  0  0  0  0  0
    3.6800   16.4800   11.0870 O   0  0  0  0  0  0  0  0  0  0  0  0
    4.2000   15.6620    9.9980 C   0  0  0  0  0  0  0  0  0  0  0  0
    2.3010   21.3770   17.4740 C   0  0  1  0  0  0  0  0  0  0  0  0
    5.5650   15.0840   10.2970 C   0  0  0  0  0  0  0  0  0  0  0  0
    4.2340   22.4250   18.5730 O   0  0  0  0  0  0  0  0  0  0  0  0
    6.5550   15.8200   10.0960 O   0  5  0  0  0  0  0  0  0  0  0  0
    1.6390   22.2040   16.5310 O   0  0  0  0  0  0  0  0  0  0  0  0
   -1.4530   15.8300   20.7650 C   0  0  0  0  0  0  0  0  0  0  0  0
    2.1720   19.8700   17.1650 C   0  0  1  0  0  0  0  0  0  0  0  0
    5.6250   13.9080   10.7140 O   0  0  0  0  0  0  0  0  0  0  0  0
   -2.5420   15.6020   21.5510 O   0  0  0  0  0  0  0  0  0  0  0  0
   -0.2910   16.2810   21.3980 C   0  0  0  0  0  0  0  0  0  0  0  0
    1.0760   19.5780   16.3150 O   0  0  0  0  0  0  0  0  0  0  0  0
    5.7700   20.3980   16.7680 O   0  0  0  0  0  0  0  0  0  0  0  0
   -1.2700   15.6170   16.7860 H   0  0  0  0  0  0  0  0  0  0  0  0
   -0.4150   16.1930   14.6190 H   0  0  0  0  0  0  0  0  0  0  0  0
    1.7420   16.8090   21.1350 H   0  0  0  0  0  0  0  0  0  0  0  0
   -3.3010   15.9750   18.2380 H   0  0  0  0  0  0  0  0  0  0  0  0
   -2.5270   14.4150   17.9110 H   0  0  0  0  0  0  0  0  0  0  0  0
   -3.4490   14.6350   19.3820 H   0  0  0  0  0  0  0  0  0  0  0  0
    3.7340   16.0990   16.2720 H   0  0  0  0  0  0  0  0  0  0  0  0
    3.6150   17.4890   14.1370 H   0  0  0  0  0  0  0  0  0  0  0  0
    1.2150   18.7200   11.6490 H   0  0  0  0  0  0  0  0  0  0  0  0
    2.7520   18.5400   12.4920 H   0  0  0  0  0  0  0  0  0  0  0  0
    3.5750   19.7200   15.5050 H   0  0  0  0  0  0  0  0  0  0  0  0
    4.5810   19.9180   18.3780 H   0  0  0  0  0  0  0  0  0  0  0  0
    1.7480   16.6190   10.3520 H   0  0  0  0  0  0  0  0  0  0  0  0
    2.8040   18.0110   10.0220 H   0  0  0  0  0  0  0  0  0  0  0  0
    4.0390   22.2510   16.5340 H   0  0  0  0  0  0  0  0  0  0  0  0
    3.4890   14.8710    9.8070 H   0  0  0  0  0  0  0  0  0  0  0  0
    4.2600   16.2850    9.1160 H   0  0  0  0  0  0  0  0  0  0  0  0
    1.9000   21.5770   18.4680 H   0  0  0  0  0  0  0  0  0  0  0  0
    5.1690   22.6170   18.4630 H   0  0  0  0  0  0  0  0  0  0  0  0
    0.6920   22.0620   16.6190 H   0  0  0  0  0  0  0  0  0  0  0  0
    2.0380   19.3420   18.1090 H   0  0  0  0  0  0  0  0  0  0  0  0
   -3.3120   15.3500   21.0030 H   0  0  0  0  0  0  0  0  0  0  0  0
   -0.2860   16.4600   22.4420 H   0  0  0  0  0  0  0  0  0  0  0  0
    1.1770   20.0770   15.5010 H   0  0  0  0  0  0  0  0  0  0  0  0
    6.1610   19.5190   16.8090 H   0  0  0  0  0  0  0  0  0  0  0  0
  1  2  2  0  0  0  0
  2  3  1  0  0  0  0
  2  4  1  0  0  0  0
  3  5  1  0  0  0  0
  3 10  2  0  0  0  0
  4  6  1  0  0  0  0
  4 13  1  0  0  0  0
  5  7  2  0  0  0  0
  5  8  1  0  0  0  0
  6  8  1  0  0  0  0
  6  9  2  0  0  0  0
  7 12  1  0  0  0  0
  7 29  1  0  0  0  0
  8 36  1  0  0  0  0
  9 11  1  0  0  0  0
  9 37  1  0  0  0  0
 10 33  1  0  0  0  0
 10 38  1  0  0  0  0
 11 15  1  0  0  0  0
 11 16  2  0  0  0  0
 12 39  1  0  0  0  0
 12 40  1  0  0  0  0
 12 41  1  0  0  0  0
 13 14  1  0  0  0  0
 13 16  1  0  0  0  0
 13 42  1  0  0  0  0
 14 18  1  0  0  0  0
 15 17  1  0  0  0  0
 16 43  1  0  0  0  0
 17 20  1  0  0  0  0
 17 44  1  0  0  0  0
 17 45  1  0  0  0  0
 18 19  1  0  0  0  0
 18 30  1  0  0  0  0
 18 46  1  0  0  0  0
 19 21  1  0  0  0  0
 19 35  1  0  0  0  0
 19 47  1  0  0  0  0
 20 22  1  0  0  0  0
 20 48  1  0  0  0  0
 20 49  1  0  0  0  0
 21 24  1  0  0  0  0
 21 26  1  0  0  0  0
 21 50  1  0  0  0  0
 22 23  1  0  0  0  0
 23 25  1  0  0  0  0
 23 51  1  0  0  0  0
 23 52  1  0  0  0  0
 24 28  1  0  0  0  0
 24 30  1  0  0  0  0
 24 53  1  0  0  0  0
 25 27  1  0  0  0  0
 25 31  2  0  0  0  0
 26 54  1  0  0  0  0
 28 55  1  0  0  0  0
 29 32  1  0  0  0  0
 29 33  2  0  0  0  0
 30 34  1  0  0  0  0
 30 56  1  0  0  0  0
 32 57  1  0  0  0  0
 33 58  1  0  0  0  0
 34 59  1  0  0  0  0
 35 60  1  0  0  0  0
M  CHG  1  27  -1
M  END
> <rseq>
1

> <mseq>
441

> <S>
-6.509448

> <rmsd_refine>
1.882938

> <E_conf>
-71.12006

> <E_score1>
-13.22553

> <E_refine>
-38.7479

> <E_score2>
-6.509448

>  <$File>
outputs/pdb_4j58_cleaned.pdb_2024_06_17__22_47_40_V2_BS398_MIN1_/SDF/sdf_db.sdf

> <Rec_index>
1

>  <PLIF_raw>
[[35,14,27,27,31,3,5,7,29,33,10],[953,954,823,823,823,1519,1519,1519,1519,1519,1519],[62,62,54,54,54,102,102,102,102,102,102],[1,2,2,7,7,10,10,10,10,10,10],[0.5,2.1,2.3,4.591425502,0.6023148487,0.6,0.6,0.6,0.6,0.6,0.6]]

> <FP:PLIF>
6 19 1 16 28 20 23 22

>  <PLIF_ligidx>
[27,27,[27,31],27,35,14,14,[3,5,7,29,33,10]]

$$$$
441
  MOE2022           3D

 61 64  0  0  1  0  0  0  0  0999 V2000
    7.3030   21.0120   19.4010 C   0  0  0  0  0  0  0  0  0  0  0  0
    6.4680   19.9240   19.1740 C   0  0  0  0  0  0  0  0  0  0  0  0
    5.1450   20.1390   18.7950 C   0  0  0  0  0  0  0  0  0  0  0  0
    4.3660   19.0280   18.5090 O   0  0  0  0  0  0  0  0  0  0  0  0
    3.2010   19.0340   17.6130 C   0  0  1  0  0  0  0  0  0  0  0  0
    4.6420   21.4390   18.6780 C   0  0  0  0  0  0  0  0  0  0  0  0
    6.8140   22.3080   19.2630 C   0  0  0  0  0  0  0  0  0  0  0  0
    5.4850   22.5210   18.9060 C   0  0  0  0  0  0  0  0  0  0  0  0
    3.6050   19.3040   16.1580 C   0  0  0  0  0  0  0  0  0  0  0  0
    4.4910   20.1240   15.9160 O   0  0  0  0  0  0  0  0  0  0  0  0
    2.3660   17.7500   17.7970 C   0  0  2  0  0  0  0  0  0  0  0  0
    2.9370   18.7020   15.1420 N   0  0  0  0  0  0  0  0  0  0  0  0
    1.2430   17.6740   16.7410 C   0  0  2  0  0  0  0  0  0  0  0  0
    1.9800   17.5870   15.3780 C   0  0  1  0  0  0  0  0  0  0  0  0
    1.8520   17.6770   19.1140 O   0  0  0  0  0  0  0  0  0  0  0  0
    3.2420   19.0690   13.7440 C   0  0  0  0  0  0  0  0  0  0  0  0
    0.3730   18.8770   16.7800 N   0  0  0  0  0  0  0  0  0  0  0  0
    0.3970   16.3990   16.9720 C   0  0  0  0  0  0  0  0  0  0  0  0
   -0.7640   16.3220   16.1660 O   0  0  0  0  0  0  0  0  0  0  0  0
    1.0140   17.4460   14.2700 O   0  0  0  0  0  0  0  0  0  0  0  0
    1.2360   16.5020   13.1290 C   0  0  2  0  0  0  0  0  0  0  0  0
    2.3390   15.4650   13.3870 C   0  0  0  0  0  0  0  0  0  0  0  0
    1.3700   17.3090   11.8450 C   0  0  0  0  0  0  0  0  0  0  0  0
    0.5800   18.1810   11.5740 O   0  0  0  0  0  0  0  0  0  0  0  0
    2.5900   14.5260   12.2390 C   0  0  0  0  0  0  0  0  0  0  0  0
    2.3810   17.1580   10.9570 O   0  0  0  0  0  0  0  0  0  0  0  0
    3.3270   16.2300   10.6150 C   0  0  0  0  0  0  0  0  0  0  0  0
    2.1650   13.3940   12.3030 O   0  0  0  0  0  0  0  0  0  0  0  0
    4.2170   16.7660    9.5070 C   0  0  0  0  0  0  0  0  0  0  0  0
    4.9460   15.6540    8.7440 C   0  0  1  0  0  0  0  0  0  0  0  0
    3.4090   14.9750   11.1410 C   0  0  0  0  0  0  0  0  0  0  0  0
    5.9850   16.2080    7.9140 O   0  0  0  0  0  0  0  0  0  0  0  0
    4.3930   13.9630   10.5650 C   0  0  0  0  0  0  0  0  0  0  0  0
    5.4590   14.6200    9.7210 C   0  0  0  0  0  0  0  0  0  0  0  0
    6.6250   14.4950    9.9780 O   0  0  0  0  0  0  0  0  0  0  0  0
    8.3150   20.8570   19.6680 H   0  0  0  0  0  0  0  0  0  0  0  0
    6.8430   18.9400   19.2730 H   0  0  0  0  0  0  0  0  0  0  0  0
    2.5660   19.8510   17.9250 H   0  0  0  0  0  0  0  0  0  0  0  0
    3.6340   21.6130   18.4080 H   0  0  0  0  0  0  0  0  0  0  0  0
    7.4540   23.1340   19.4280 H   0  0  0  0  0  0  0  0  0  0  0  0
    5.1170   23.5090   18.8040 H   0  0  0  0  0  0  0  0  0  0  0  0
    3.0320   16.8980   17.6560 H   0  0  0  0  0  0  0  0  0  0  0  0
    2.5600   16.6800   15.4340 H   0  0  0  0  0  0  0  0  0  0  0  0
    1.3710   18.4900   19.2970 H   0  0  0  0  0  0  0  0  0  0  0  0
    3.9630   19.8690   13.6510 H   0  0  0  0  0  0  0  0  0  0  0  0
    3.6450   18.2300   13.1960 H   0  0  0  0  0  0  0  0  0  0  0  0
    2.3550   19.4150   13.2330 H   0  0  0  0  0  0  0  0  0  0  0  0
    0.9250   19.7030   16.5970 H   0  0  0  0  0  0  0  0  0  0  0  0
   -0.3250   18.7940   16.0520 H   0  0  0  0  0  0  0  0  0  0  0  0
    1.0180   15.5380   16.7560 H   0  0  0  0  0  0  0  0  0  0  0  0
    0.0780   16.3460   18.0130 H   0  0  0  0  0  0  0  0  0  0  0  0
   -1.3510   17.0420   16.4120 H   0  0  0  0  0  0  0  0  0  0  0  0
    0.3050   15.9570   13.0430 H   0  0  0  0  0  0  0  0  0  0  0  0
    3.2690   15.9720   13.6020 H   0  0  0  0  0  0  0  0  0  0  0  0
    2.0870   14.8930   14.2710 H   0  0  0  0  0  0  0  0  0  0  0  0
    3.6430   17.3600    8.8080 H   0  0  0  0  0  0  0  0  0  0  0  0
    4.9420   17.4390    9.9440 H   0  0  0  0  0  0  0  0  0  0  0  0
    4.2320   15.1760    8.0860 H   0  0  0  0  0  0  0  0  0  0  0  0
    6.5340   15.4990    7.5410 H   0  0  0  0  0  0  0  0  0  0  0  0
    4.8590   13.4000   11.3610 H   0  0  0  0  0  0  0  0  0  0  0  0
    3.8450   13.2500    9.9650 H   0  0  0  0  0  0  0  0  0  0  0  0
  1  2  1  0  0  0  0
  1  7  2  0  0  0  0
  1 36  1  0  0  0  0
  2  3  2  0  0  0  0
  2 37  1  0  0  0  0
  3  4  1  0  0  0  0
  3  6  1  0  0  0  0
  4  5  1  0  0  0  0
  5  9  1  0  0  0  0
  5 11  1  0  0  0  0
  5 38  1  0  0  0  0
  6  8  2  0  0  0  0
  6 39  1  0  0  0  0
  7  8  1  0  0  0  0
  7 40  1  0  0  0  0
  8 41  1  0  0  0  0
  9 10  2  0  0  0  0
  9 12  1  0  0  0  0
 11 13  1  0  0  0  0
 11 15  1  0  0  0  0
 11 42  1  0  0  0  0
 12 14  1  0  0  0  0
 12 16  1  0  0  0  0
 13 14  1  0  0  0  0
 13 17  1  0  0  0  0
 13 18  1  0  0  0  0
 14 20  1  0  0  0  0
 14 43  1  0  0  0  0
 15 44  1  0  0  0  0
 16 45  1  0  0  0  0
 16 46  1  0  0  0  0
 16 47  1  0  0  0  0
 17 48  1  0  0  0  0
 17 49  1  0  0  0  0
 18 19  1  0  0  0  0
 18 50  1  0  0  0  0
 18 51  1  0  0  0  0
 19 52  1  0  0  0  0
 20 21  1  0  0  0  0
 21 22  1  0  0  0  0
 21 23  1  0  0  0  0
 21 53  1  0  0  0  0
 22 25  1  0  0  0  0
 22 54  1  0  0  0  0
 22 55  1  0  0  0  0
 23 24  2  0  0  0  0
 23 26  1  0  0  0  0
 25 28  2  0  0  0  0
 25 31  1  0  0  0  0
 26 27  1  0  0  0  0
 27 29  1  0  0  0  0
 27 31  2  0  0  0  0
 29 30  1  0  0  0  0
 29 56  1  0  0  0  0
 29 57  1  0  0  0  0
 30 32  1  0  0  0  0
 30 34  1  0  0  0  0
 30 58  1  0  0  0  0
 31 33  1  0  0  0  0
 32 59  1  0  0  0  0
 33 34  1  0  0  0  0
 33 60  1  0  0  0  0
 33 61  1  0  0  0  0
 34 35  2  0  0  0  0
M  END
> <rseq>
1

> <mseq>
442

> <S>
-6.776245

> <rmsd_refine>
1.556927

> <E_conf>
150.4583

> <E_score1>
-12.00282

> <E_refine>
-36.5329

> <E_score2>
-6.776245

>  <$File>
outputs/pdb_4j58_cleaned.pdb_2024_06_17__22_47_40_V2_BS398_MIN1_/SDF/sdf_db.sdf

> <Rec_index>
1

>  <PLIF_raw>
[[],[],[],[],[]]

>  <PLIF_ligidx>
[]

$$$$
442
  MOE2022           3D

 61 64  0  0  1  0  0  0  0  0999 V2000
    3.7390   17.9370   19.4600 O   0  0  0  0  0  0  0  0  0  0  0  0
    2.8260   17.5730   18.7130 C   0  0  0  0  0  0  0  0  0  0  0  0
    1.7060   16.7770   19.1400 C   0  0  0  0  0  0  0  0  0  0  0  0
    2.8820   17.9250   17.3590 N   0  0  0  0  0  0  0  0  0  0  0  0
    0.7550   16.4240   18.2320 C   0  0  0  0  0  0  0  0  0  0  0  0
    1.9080   17.4400   16.4680 C   0  0  0  0  0  0  0  0  0  0  0  0
    0.8880   16.7600   16.9060 N   0  0  0  0  0  0  0  0  0  0  0  0
    2.1150   17.6350   15.0440 C   0  0  0  0  0  0  0  0  0  0  0  0
    4.0100   18.7680   16.8500 C   0  0  0  0  0  0  0  0  0  0  0  0
    1.6170   16.3350   20.5940 C   0  0  0  0  0  0  0  0  0  0  0  0
   -0.4690   15.6030   18.5900 C   0  0  0  0  0  0  0  0  0  0  0  0
    3.7210   20.2780   16.7100 C   0  0  1  0  0  0  0  0  0  0  0  0
    3.9910   21.0640   17.9940 C   0  0  0  0  0  0  0  0  0  0  0  0
    1.6260   18.7630   14.3680 C   0  0  0  0  0  0  0  0  0  0  0  0
    4.6970   20.9340   15.7430 C   0  0  0  0  0  0  0  0  0  0  0  0
    1.8670   18.9320   13.0080 C   0  0  0  0  0  0  0  0  0  0  0  0
    2.5920   17.9640   12.3080 C   0  0  0  0  0  0  0  0  0  0  0  0
    4.6020   20.8150   14.5210 O   0  0  0  0  0  0  0  0  0  0  0  0
    2.8240   16.6710   14.3080 C   0  0  0  0  0  0  0  0  0  0  0  0
    5.3940   21.6910   17.8520 C   0  0  1  0  0  0  0  0  0  0  0  0
    5.6360   21.6300   16.3950 N   0  0  0  0  0  0  0  0  0  0  0  0
    6.7590   22.3020   15.7350 C   0  0  0  0  0  0  0  0  0  0  0  0
    5.3700   23.1650   18.3140 C   0  0  0  0  0  0  0  0  0  0  0  0
    2.8170   18.1810   10.9610 O   0  0  0  0  0  0  0  0  0  0  0  0
    3.2760   15.5430   14.9240 O   0  0  0  0  0  0  0  0  0  0  0  0
    3.2230   17.2180   10.0550 C   0  0  0  0  0  0  0  0  0  0  0  0
    6.4130   20.8800   18.6800 C   0  0  0  0  0  0  0  0  0  0  0  0
    3.0820   16.8290   12.9530 C   0  0  0  0  0  0  0  0  0  0  0  0
    4.2650   17.5360    9.1890 C   0  0  0  0  0  0  0  0  0  0  0  0
    4.7190   16.5770    8.2880 C   0  0  0  0  0  0  0  0  0  0  0  0
    7.2330   20.1440   18.0850 O   0  0  0  0  0  0  0  0  0  0  0  0
    2.6010   15.9690   10.0060 C   0  0  0  0  0  0  0  0  0  0  0  0
    6.3540   20.9730   19.9290 O   0  5  0  0  0  0  0  0  0  0  0  0
    4.1200   15.3190    8.2460 C   0  0  0  0  0  0  0  0  0  0  0  0
    3.0600   15.0190    9.0990 C   0  0  0  0  0  0  0  0  0  0  0  0
    4.8870   18.6600   17.4700 H   0  0  0  0  0  0  0  0  0  0  0  0
    4.3490   18.3890   15.8960 H   0  0  0  0  0  0  0  0  0  0  0  0
    0.8200   16.8530   21.1080 H   0  0  0  0  0  0  0  0  0  0  0  0
    1.4230   15.2740   20.6640 H   0  0  0  0  0  0  0  0  0  0  0  0
    2.5320   16.5140   21.1400 H   0  0  0  0  0  0  0  0  0  0  0  0
   -0.9320   15.9490   19.5030 H   0  0  0  0  0  0  0  0  0  0  0  0
   -1.2220   15.6510   17.8160 H   0  0  0  0  0  0  0  0  0  0  0  0
   -0.2120   14.5620   18.7250 H   0  0  0  0  0  0  0  0  0  0  0  0
    2.6960   20.4310   16.3760 H   0  0  0  0  0  0  0  0  0  0  0  0
    3.2330   21.8430   18.0900 H   0  0  0  0  0  0  0  0  0  0  0  0
    3.9500   20.4200   18.8650 H   0  0  0  0  0  0  0  0  0  0  0  0
    1.0710   19.4940   14.8980 H   0  0  0  0  0  0  0  0  0  0  0  0
    1.5020   19.7890   12.5040 H   0  0  0  0  0  0  0  0  0  0  0  0
    6.6000   23.3700   15.6820 H   0  0  0  0  0  0  0  0  0  0  0  0
    7.6840   22.1350   16.2700 H   0  0  0  0  0  0  0  0  0  0  0  0
    6.9070   21.9460   14.7250 H   0  0  0  0  0  0  0  0  0  0  0  0
    5.0060   23.2390   19.3370 H   0  0  0  0  0  0  0  0  0  0  0  0
    6.3710   23.5950   18.2770 H   0  0  0  0  0  0  0  0  0  0  0  0
    4.7150   23.7620   17.6780 H   0  0  0  0  0  0  0  0  0  0  0  0
    2.9120   15.4760   15.8310 H   0  0  0  0  0  0  0  0  0  0  0  0
    3.6390   16.0940   12.4330 H   0  0  0  0  0  0  0  0  0  0  0  0
    4.7070   18.4980    9.2200 H   0  0  0  0  0  0  0  0  0  0  0  0
    5.5200   16.8020    7.6330 H   0  0  0  0  0  0  0  0  0  0  0  0
    1.7920   15.7450   10.6510 H   0  0  0  0  0  0  0  0  0  0  0  0
    4.4680   14.5910    7.5590 H   0  0  0  0  0  0  0  0  0  0  0  0
    2.6020   14.0640    9.0570 H   0  0  0  0  0  0  0  0  0  0  0  0
  1  2  2  0  0  0  0
  2  3  1  0  0  0  0
  2  4  1  0  0  0  0
  3  5  2  0  0  0  0
  3 10  1  0  0  0  0
  4  6  1  0  0  0  0
  4  9  1  0  0  0  0
  5  7  1  0  0  0  0
  5 11  1  0  0  0  0
  6  7  2  0  0  0  0
  6  8  1  0  0  0  0
  8 14  1  0  0  0  0
  8 19  2  0  0  0  0
  9 12  1  0  0  0  0
  9 36  1  0  0  0  0
  9 37  1  0  0  0  0
 10 38  1  0  0  0  0
 10 39  1  0  0  0  0
 10 40  1  0  0  0  0
 11 41  1  0  0  0  0
 11 42  1  0  0  0  0
 11 43  1  0  0  0  0
 12 13  1  0  0  0  0
 12 15  1  0  0  0  0
 12 44  1  0  0  0  0
 13 20  1  0  0  0  0
 13 45  1  0  0  0  0
 13 46  1  0  0  0  0
 14 16  2  0  0  0  0
 14 47  1  0  0  0  0
 15 18  2  0  0  0  0
 15 21  1  0  0  0  0
 16 17  1  0  0  0  0
 16 48  1  0  0  0  0
 17 24  1  0  0  0  0
 17 28  2  0  0  0  0
 19 25  1  0  0  0  0
 19 28  1  0  0  0  0
 20 21  1  0  0  0  0
 20 23  1  0  0  0  0
 20 27  1  0  0  0  0
 21 22  1  0  0  0  0
 22 49  1  0  0  0  0
 22 50  1  0  0  0  0
 22 51  1  0  0  0  0
 23 52  1  0  0  0  0
 23 53  1  0  0  0  0
 23 54  1  0  0  0  0
 24 26  1  0  0  0  0
 25 55  1  0  0  0  0
 26 29  1  0  0  0  0
 26 32  2  0  0  0  0
 27 31  2  0  0  0  0
 27 33  1  0  0  0  0
 28 56  1  0  0  0  0
 29 30  2  0  0  0  0
 29 57  1  0  0  0  0
 30 34  1  0  0  0  0
 30 58  1  0  0  0  0
 32 35  1  0  0  0  0
 32 59  1  0  0  0  0
 34 35  2  0  0  0  0
 34 60  1  0  0  0  0
 35 61  1  0  0  0  0
M  CHG  1  33  -1
M  END
> <rseq>
1

> <mseq>
443

> <S>
-6.4938

> <rmsd_refine>
1.091608

> <E_conf>
-49.13233

> <E_score1>
-13.06807

> <E_refine>
-34.48985

> <E_score2>
-6.4938

>  <$File>
outputs/pdb_4j58_cleaned.pdb_2024_06_17__22_47_40_V2_BS398_MIN1_/SDF/sdf_db.sdf

> <Rec_index>
1

>  <PLIF_raw>
[[33,33],[1866,1872],[125,125],[7,7],[0.9145609769,1.143430723]]

> <FP:PLIF>
13

>  <PLIF_ligidx>
[[33,33]]

$$$$
443
  MOE2022           3D

 57 61  0  0  1  0  0  0  0  0999 V2000
    3.6620   17.9510   19.3020 O   0  0  0  0  0  0  0  0  0  0  0  0
    2.7040   17.5190   18.6500 C   0  0  0  0  0  0  0  0  0  0  0  0
    1.6410   16.7240   19.2090 C   0  0  0  0  0  0  0  0  0  0  0  0
    2.6500   17.7820   17.2740 N   0  0  0  0  0  0  0  0  0  0  0  0
    0.6390   16.2850   18.3980 C   0  0  0  0  0  0  0  0  0  0  0  0
    1.6630   17.1590   16.4860 C   0  0  0  0  0  0  0  0  0  0  0  0
    0.6880   16.5040   17.0430 N   0  0  0  0  0  0  0  0  0  0  0  0
    1.8220   17.1390   15.0410 C   0  0  0  0  0  0  0  0  0  0  0  0
    3.6730   18.6830   16.6490 C   0  0  0  0  0  0  0  0  0  0  0  0
    1.6680   16.3680   20.6870 C   0  0  0  0  0  0  0  0  0  0  0  0
   -0.5370   15.4670   18.8940 C   0  0  0  0  0  0  0  0  0  0  0  0
    3.2790   20.1780   16.5480 C   0  0  1  0  0  0  0  0  0  0  0  0
    3.3290   20.9210   17.8920 C   0  0  0  0  0  0  0  0  0  0  0  0
    1.5680   18.2430   14.2170 C   0  0  0  0  0  0  0  0  0  0  0  0
    4.2260   20.9900   15.6740 C   0  0  0  0  0  0  0  0  0  0  0  0
    1.8210   18.1680   12.8540 C   0  0  0  0  0  0  0  0  0  0  0  0
    2.2990   16.9790   12.2980 C   0  0  0  0  0  0  0  0  0  0  0  0
    4.5540   20.6720   14.5340 O   0  0  0  0  0  0  0  0  0  0  0  0
    2.2460   15.9410   14.4570 C   0  0  0  0  0  0  0  0  0  0  0  0
    3.8990   22.3050   17.5500 C   0  0  1  0  0  0  0  0  0  0  0  0
    2.4700   15.8340   13.0920 C   0  0  0  0  0  0  0  0  0  0  0  0
    4.7530   22.9080   18.6830 C   0  0  0  0  0  0  0  0  0  0  0  0
    4.3490   23.9730   19.2010 O   0  0  0  0  0  0  0  0  0  0  0  0
    5.7890   22.3000   19.0330 O   0  5  0  0  0  0  0  0  0  0  0  0
    4.6240   22.0850   16.3100 N   0  0  0  0  0  0  0  0  0  0  0  0
    2.5950   17.0340   10.9510 O   0  0  0  0  0  0  0  0  0  0  0  0
    3.5140   16.2590   10.2600 C   0  0  0  0  0  0  0  0  0  0  0  0
    4.4350   16.8820    9.4190 C   0  0  0  0  0  0  0  0  0  0  0  0
    4.4210   18.2440    9.2780 O   0  0  0  0  0  0  0  0  0  0  0  0
    3.5290   14.8720   10.3770 C   0  0  0  0  0  0  0  0  0  0  0  0
    5.3790   16.1290    8.7190 C   0  0  0  0  0  0  0  0  0  0  0  0
    5.3910   14.7410    8.8580 C   0  0  0  0  0  0  0  0  0  0  0  0
    2.6410   14.2510   11.1960 O   0  0  0  0  0  0  0  0  0  0  0  0
    4.4620   14.1060    9.6810 C   0  0  0  0  0  0  0  0  0  0  0  0
    2.8870   14.4700   12.5850 C   0  0  0  0  0  0  0  0  0  0  0  0
    4.6150   18.6170   17.1750 H   0  0  0  0  0  0  0  0  0  0  0  0
    3.9300   18.3250   15.6620 H   0  0  0  0  0  0  0  0  0  0  0  0
    0.8780   16.8720   21.2230 H   0  0  0  0  0  0  0  0  0  0  0  0
    1.5370   15.3040   20.8300 H   0  0  0  0  0  0  0  0  0  0  0  0
    2.6060   16.6210   21.1590 H   0  0  0  0  0  0  0  0  0  0  0  0
   -0.9110   15.8260   19.8420 H   0  0  0  0  0  0  0  0  0  0  0  0
   -1.3630   15.4990   18.1970 H   0  0  0  0  0  0  0  0  0  0  0  0
   -0.2610   14.4290   19.0160 H   0  0  0  0  0  0  0  0  0  0  0  0
    2.2760   20.2660   16.1390 H   0  0  0  0  0  0  0  0  0  0  0  0
    2.3290   21.0170   18.3110 H   0  0  0  0  0  0  0  0  0  0  0  0
    4.0040   20.4120   18.5800 H   0  0  0  0  0  0  0  0  0  0  0  0
    1.1880   19.1390   14.6310 H   0  0  0  0  0  0  0  0  0  0  0  0
    1.6580   19.0130   12.2360 H   0  0  0  0  0  0  0  0  0  0  0  0
    2.3960   15.0960   15.0780 H   0  0  0  0  0  0  0  0  0  0  0  0
    3.0690   22.9820   17.3400 H   0  0  0  0  0  0  0  0  0  0  0  0
    5.2510   22.7720   15.9200 H   0  0  0  0  0  0  0  0  0  0  0  0
    5.1660   18.5380    8.7190 H   0  0  0  0  0  0  0  0  0  0  0  0
    6.0820   16.6030    8.0830 H   0  0  0  0  0  0  0  0  0  0  0  0
    6.1050   14.1620    8.3350 H   0  0  0  0  0  0  0  0  0  0  0  0
    4.4690   13.0520    9.7820 H   0  0  0  0  0  0  0  0  0  0  0  0
    3.9380   14.3200   12.7790 H   0  0  0  0  0  0  0  0  0  0  0  0
    2.3660   13.6990   13.1360 H   0  0  0  0  0  0  0  0  0  0  0  0
  1  2  2  0  0  0  0
  2  3  1  0  0  0  0
  2  4  1  0  0  0  0
  3  5  2  0  0  0  0
  3 10  1  0  0  0  0
  4  6  1  0  0  0  0
  4  9  1  0  0  0  0
  5  7  1  0  0  0  0
  5 11  1  0  0  0  0
  6  7  2  0  0  0  0
  6  8  1  0  0  0  0
  8 14  1  0  0  0  0
  8 19  2  0  0  0  0
  9 12  1  0  0  0  0
  9 36  1  0  0  0  0
  9 37  1  0  0  0  0
 10 38  1  0  0  0  0
 10 39  1  0  0  0  0
 10 40  1  0  0  0  0
 11 41  1  0  0  0  0
 11 42  1  0  0  0  0
 11 43  1  0  0  0  0
 12 13  1  0  0  0  0
 12 15  1  0  0  0  0
 12 44  1  0  0  0  0
 13 20  1  0  0  0  0
 13 45  1  0  0  0  0
 13 46  1  0  0  0  0
 14 16  2  0  0  0  0
 14 47  1  0  0  0  0
 15 18  2  0  0  0  0
 15 25  1  0  0  0  0
 16 17  1  0  0  0  0
 16 48  1  0  0  0  0
 17 21  2  0  0  0  0
 17 26  1  0  0  0  0
 19 21  1  0  0  0  0
 19 49  1  0  0  0  0
 20 22  1  0  0  0  0
 20 25  1  0  0  0  0
 20 50  1  0  0  0  0
 21 35  1  0  0  0  0
 22 23  2  0  0  0  0
 22 24  1  0  0  0  0
 25 51  1  0  0  0  0
 26 27  1  0  0  0  0
 27 28  1  0  0  0  0
 27 30  2  0  0  0  0
 28 29  1  0  0  0  0
 28 31  2  0  0  0  0
 29 52  1  0  0  0  0
 30 33  1  0  0  0  0
 30 34  1  0  0  0  0
 31 32  1  0  0  0  0
 31 53  1  0  0  0  0
 32 34  2  0  0  0  0
 32 54  1  0  0  0  0
 33 35  1  0  0  0  0
 34 55  1  0  0  0  0
 35 56  1  0  0  0  0
 35 57  1  0  0  0  0
M  CHG  1  24  -1
M  END
> <rseq>
1

> <mseq>
444

> <S>
-6.213278

> <rmsd_refine>
1.20907

> <E_conf>
-46.72583

> <E_score1>
-10.48305

> <E_refine>
-35.5408

> <E_score2>
-6.213278

>  <$File>
outputs/pdb_4j58_cleaned.pdb_2024_06_17__22_47_40_V2_BS398_MIN1_/SDF/sdf_db.sdf

> <Rec_index>
1

>  <PLIF_raw>
[[29,23,23,24,27,30,34,32,31,28,2,4,6,7,5,3],[2222,1872,1872,1872,823,823,823,823,823,823,954,954,954,954,954,954],[148,125,125,125,54,54,54,54,54,54,62,62,62,62,62,62],[3,2,7,7,10,10,10,10,10,10,10,10,10,10,10,10],[0.8,5.1,4.194287141,2.243904852,0.5,0.5,0.5,0.5,0.5,0.5,1,1,1,1,1,1]]

> <FP:PLIF>
2 21 30 29 46 13 31 39

>  <PLIF_ligidx>
[[27,30,34,32,31,28],[2,4,6,7,5,3],[2,4,6,7,5,3],23,23,[23,24],23,29]

$$$$
444
  MOE2022           3D

 61 64  0  0  1  0  0  0  0  0999 V2000
    7.3810   21.1190   19.4070 C   0  0  0  0  0  0  0  0  0  0  0  0
    6.5570   20.0240   19.1790 C   0  0  0  0  0  0  0  0  0  0  0  0
    5.2260   20.2320   18.8250 C   0  0  0  0  0  0  0  0  0  0  0  0
    4.4640   19.1250   18.5020 O   0  0  0  0  0  0  0  0  0  0  0  0
    3.3300   19.1590   17.5690 C   0  0  1  0  0  0  0  0  0  0  0  0
    4.7010   21.5260   18.7440 C   0  0  0  0  0  0  0  0  0  0  0  0
    6.8730   22.4100   19.2950 C   0  0  0  0  0  0  0  0  0  0  0  0
    5.5350   22.6130   18.9700 C   0  0  0  0  0  0  0  0  0  0  0  0
    3.7450   19.5870   16.1590 C   0  0  0  0  0  0  0  0  0  0  0  0
    4.7470   20.2810   15.9800 O   0  0  0  0  0  0  0  0  0  0  0  0
    2.5700   17.8210   17.6020 C   0  0  2  0  0  0  0  0  0  0  0  0
    2.9460   19.2650   15.1190 N   0  0  0  0  0  0  0  0  0  0  0  0
    1.4310   17.7890   16.5570 C   0  0  2  0  0  0  0  0  0  0  0  0
    2.0910   18.0480   15.1710 C   0  0  1  0  0  0  0  0  0  0  0  0
    2.0880   17.5800   18.9160 O   0  0  0  0  0  0  0  0  0  0  0  0
    3.0920   20.0010   13.8500 C   0  0  0  0  0  0  0  0  0  0  0  0
    0.4030   18.8220   16.8430 N   0  0  0  0  0  0  0  0  0  0  0  0
    0.8050   16.3750   16.5840 C   0  0  0  0  0  0  0  0  0  0  0  0
   -0.3280   16.2370   15.7480 O   0  0  0  0  0  0  0  0  0  0  0  0
    1.0850   18.0130   14.0740 O   0  0  0  0  0  0  0  0  0  0  0  0
    1.3860   17.4240   12.7230 C   0  0  2  0  0  0  0  0  0  0  0  0
    2.6540   16.5320   12.7460 C   0  0  0  0  0  0  0  0  0  0  0  0
    1.2690   18.5260   11.6610 C   0  0  0  0  0  0  0  0  0  0  0  0
    0.5760   19.5200   11.8640 O   0  0  0  0  0  0  0  0  0  0  0  0
    3.0100   15.8120   11.4440 C   0  0  2  0  0  0  0  0  0  0  0  0
    1.8430   18.4920   10.4440 O   0  0  0  0  0  0  0  0  0  0  0  0
    2.5980   17.5490    9.6520 C   0  0  1  0  0  0  0  0  0  0  0  0
    3.8990   14.7580   11.7550 O   0  0  0  0  0  0  0  0  0  0  0  0
    3.2620   18.2250    8.4760 C   0  0  0  0  0  0  0  0  0  0  0  0
    3.5420   19.3910    8.4740 O   0  0  0  0  0  0  0  0  0  0  0  0
    3.6610   16.7990   10.4610 C   0  0  2  0  0  0  0  0  0  0  0  0
    4.6650   16.1360    9.5980 O   0  0  0  0  0  0  0  0  0  0  0  0
    3.9290   17.2650    7.5350 C   0  0  0  0  0  0  0  0  0  0  0  0
    4.9000   16.3920    8.2920 C   0  0  0  0  0  0  0  0  0  0  0  0
    5.9020   15.9060    7.7800 O   0  0  0  0  0  0  0  0  0  0  0  0
    8.4010   20.9730   19.6520 H   0  0  0  0  0  0  0  0  0  0  0  0
    6.9430   19.0420   19.2520 H   0  0  0  0  0  0  0  0  0  0  0  0
    2.6380   19.9030   17.9350 H   0  0  0  0  0  0  0  0  0  0  0  0
    3.6850   21.6890   18.4980 H   0  0  0  0  0  0  0  0  0  0  0  0
    7.5050   23.2410   19.4560 H   0  0  0  0  0  0  0  0  0  0  0  0
    5.1540   23.5980   18.8890 H   0  0  0  0  0  0  0  0  0  0  0  0
    3.2800   17.0320   17.3550 H   0  0  0  0  0  0  0  0  0  0  0  0
    2.7510   17.2070   15.0340 H   0  0  0  0  0  0  0  0  0  0  0  0
    1.8720   18.4230   19.3250 H   0  0  0  0  0  0  0  0  0  0  0  0
    3.7390   20.8640   13.9280 H   0  0  0  0  0  0  0  0  0  0  0  0
    3.4970   19.3800   13.0660 H   0  0  0  0  0  0  0  0  0  0  0  0
    2.1390   20.3930   13.5270 H   0  0  0  0  0  0  0  0  0  0  0  0
    0.8090   19.7450   16.7880 H   0  0  0  0  0  0  0  0  0  0  0  0
    0.0110   18.6680   17.7620 H   0  0  0  0  0  0  0  0  0  0  0  0
    1.5570   15.6550   16.2650 H   0  0  0  0  0  0  0  0  0  0  0  0
    0.4980   16.1290   17.6000 H   0  0  0  0  0  0  0  0  0  0  0  0
   -0.8980   16.9990   15.8920 H   0  0  0  0  0  0  0  0  0  0  0  0
    0.5590   16.7540   12.5280 H   0  0  0  0  0  0  0  0  0  0  0  0
    3.5150   17.1210   13.0590 H   0  0  0  0  0  0  0  0  0  0  0  0
    2.4790   15.7650   13.5030 H   0  0  0  0  0  0  0  0  0  0  0  0
    2.1140   15.3740   11.0010 H   0  0  0  0  0  0  0  0  0  0  0  0
    1.8990   16.8190    9.2630 H   0  0  0  0  0  0  0  0  0  0  0  0
    3.4340   14.0790   12.2530 H   0  0  0  0  0  0  0  0  0  0  0  0
    4.2200   17.5490   11.0210 H   0  0  0  0  0  0  0  0  0  0  0  0
    3.1800   16.6260    7.0870 H   0  0  0  0  0  0  0  0  0  0  0  0
    4.4220   17.7730    6.7180 H   0  0  0  0  0  0  0  0  0  0  0  0
  1  2  1  0  0  0  0
  1  7  2  0  0  0  0
  1 36  1  0  0  0  0
  2  3  2  0  0  0  0
  2 37  1  0  0  0  0
  3  4  1  0  0  0  0
  3  6  1  0  0  0  0
  4  5  1  0  0  0  0
  5  9  1  0  0  0  0
  5 11  1  0  0  0  0
  5 38  1  0  0  0  0
  6  8  2  0  0  0  0
  6 39  1  0  0  0  0
  7  8  1  0  0  0  0
  7 40  1  0  0  0  0
  8 41  1  0  0  0  0
  9 10  2  0  0  0  0
  9 12  1  0  0  0  0
 11 13  1  0  0  0  0
 11 15  1  0  0  0  0
 11 42  1  0  0  0  0
 12 14  1  0  0  0  0
 12 16  1  0  0  0  0
 13 14  1  0  0  0  0
 13 17  1  0  0  0  0
 13 18  1  0  0  0  0
 14 20  1  0  0  0  0
 14 43  1  0  0  0  0
 15 44  1  0  0  0  0
 16 45  1  0  0  0  0
 16 46  1  0  0  0  0
 16 47  1  0  0  0  0
 17 48  1  0  0  0  0
 17 49  1  0  0  0  0
 18 19  1  0  0  0  0
 18 50  1  0  0  0  0
 18 51  1  0  0  0  0
 19 52  1  0  0  0  0
 20 21  1  0  0  0  0
 21 22  1  0  0  0  0
 21 23  1  0  0  0  0
 21 53  1  0  0  0  0
 22 25  1  0  0  0  0
 22 54  1  0  0  0  0
 22 55  1  0  0  0  0
 23 24  2  0  0  0  0
 23 26  1  0  0  0  0
 25 28  1  0  0  0  0
 25 31  1  0  0  0  0
 25 56  1  0  0  0  0
 26 27  1  0  0  0  0
 27 29  1  0  0  0  0
 27 31  1  0  0  0  0
 27 57  1  0  0  0  0
 28 58  1  0  0  0  0
 29 30  2  0  0  0  0
 29 33  1  0  0  0  0
 31 32  1  0  0  0  0
 31 59  1  0  0  0  0
 32 34  1  0  0  0  0
 33 34  1  0  0  0  0
 33 60  1  0  0  0  0
 33 61  1  0  0  0  0
 34 35  2  0  0  0  0
M  END
> <rseq>
1

> <mseq>
445

> <S>
-6.067046

> <rmsd_refine>
1.448031

> <E_conf>
115.7569

> <E_score1>
-11.08098

> <E_refine>
-30.78563

> <E_score2>
-6.067046

>  <$File>
outputs/pdb_4j58_cleaned.pdb_2024_06_17__22_47_40_V2_BS398_MIN1_/SDF/sdf_db.sdf

> <Rec_index>
1

>  <PLIF_raw>
[15,1504,101,3,0.5]

> <FP:PLIF>
8

>  <PLIF_ligidx>
15

$$$$
445
  MOE2022           3D

 62 65  0  0  1  0  0  0  0  0999 V2000
    2.5700   16.2830   20.7840 C   0  0  0  0  0  0  0  0  0  0  0  0
    1.3020   15.7660   21.0040 C   0  0  0  0  0  0  0  0  0  0  0  0
    2.8260   17.0350   19.6440 C   0  0  0  0  0  0  0  0  0  0  0  0
    0.2900   15.9900   20.0780 C   0  0  0  0  0  0  0  0  0  0  0  0
    0.5470   16.7400   18.9340 C   0  0  0  0  0  0  0  0  0  0  0  0
    1.8130   17.2810   18.7130 C   0  0  0  0  0  0  0  0  0  0  0  0
    2.0770   18.1030   17.4590 C   0  0  1  0  0  0  0  0  0  0  0  0
    3.0950   19.1360   17.7190 N   0  0  0  0  0  0  0  0  0  0  0  0
    2.4040   17.1900   16.2830 C   0  0  0  0  0  0  0  0  0  0  0  0
    3.9160   19.7460   16.7980 C   0  0  0  0  0  0  0  0  0  0  0  0
    1.5750   17.2610   15.2290 N   0  0  0  0  0  0  0  0  0  0  0  0
    3.5710   19.7340   15.6170 O   0  0  0  0  0  0  0  0  0  0  0  0
    5.1620   20.3550   17.2830 C   0  0  0  0  0  0  0  0  0  0  0  0
    3.3980   16.4600   16.2860 O   0  0  0  0  0  0  0  0  0  0  0  0
    1.8210   16.5660   13.9750 C   0  0  1  0  0  0  0  0  0  0  0  0
    0.6270   16.5850   13.0440 C   0  0  0  0  0  0  0  0  0  0  0  0
    2.9250   17.2090   13.1350 C   0  0  0  0  0  0  0  0  0  0  0  0
    5.6060   20.1060   18.5960 C   0  0  0  0  0  0  0  0  0  0  0  0
    1.2500   16.4740   11.6490 C   0  0  0  0  0  0  0  0  0  0  0  0
    5.9770   21.1710   16.4620 C   0  0  0  0  0  0  0  0  0  0  0  0
    2.6330   16.9940   11.7050 N   0  0  0  0  0  0  0  0  0  0  0  0
    6.8200   20.6130   19.0380 C   0  0  0  0  0  0  0  0  0  0  0  0
    5.5870   21.5170   15.1990 O   0  0  0  0  0  0  0  0  0  0  0  0
    3.6190   16.2470   11.0000 C   0  0  0  0  0  0  0  0  0  0  0  0
    7.6350   21.3650   18.1850 C   0  0  0  0  0  0  0  0  0  0  0  0
    8.8620   21.8190   18.5890 O   0  0  0  0  0  0  0  0  0  0  0  0
    7.1840   20.3600   20.3320 O   0  0  0  0  0  0  0  0  0  0  0  0
    7.2080   21.6620   16.8970 C   0  0  0  0  0  0  0  0  0  0  0  0
    4.3040   16.8710    9.9460 C   0  0  0  0  0  0  0  0  0  0  0  0
    3.9670   18.2900    9.5240 C   0  0  0  0  0  0  0  0  0  0  0  0
    3.9530   14.9200   11.3440 C   0  0  0  0  0  0  0  0  0  0  0  0
    3.2980   14.2540   12.3480 O   0  0  0  0  0  0  0  0  0  0  0  0
    5.3140   16.1750    9.2780 C   0  0  0  0  0  0  0  0  0  0  0  0
    4.9690   14.2440   10.6790 C   0  0  0  0  0  0  0  0  0  0  0  0
    5.6520   14.8760    9.6450 C   0  0  0  0  0  0  0  0  0  0  0  0
    3.3430   16.1010   21.4830 H   0  0  0  0  0  0  0  0  0  0  0  0
    1.1190   15.2030   21.8770 H   0  0  0  0  0  0  0  0  0  0  0  0
    3.7990   17.4170   19.4940 H   0  0  0  0  0  0  0  0  0  0  0  0
   -0.6780   15.5910   20.2400 H   0  0  0  0  0  0  0  0  0  0  0  0
   -0.2280   16.9020   18.2300 H   0  0  0  0  0  0  0  0  0  0  0  0
    1.1610   18.6310   17.2270 H   0  0  0  0  0  0  0  0  0  0  0  0
    3.3020   19.2880   18.7190 H   0  0  0  0  0  0  0  0  0  0  0  0
    0.7830   17.8830   15.2660 H   0  0  0  0  0  0  0  0  0  0  0  0
    2.0970   15.5300   14.1730 H   0  0  0  0  0  0  0  0  0  0  0  0
   -0.0600   15.7650   13.2510 H   0  0  0  0  0  0  0  0  0  0  0  0
    0.1120   17.5440   13.1210 H   0  0  0  0  0  0  0  0  0  0  0  0
    2.9560   18.2740   13.3230 H   0  0  0  0  0  0  0  0  0  0  0  0
    3.8860   16.8200   13.4250 H   0  0  0  0  0  0  0  0  0  0  0  0
    5.0300   19.5210   19.2640 H   0  0  0  0  0  0  0  0  0  0  0  0
    1.2440   15.4410   11.3270 H   0  0  0  0  0  0  0  0  0  0  0  0
    0.6670   17.0210   10.9210 H   0  0  0  0  0  0  0  0  0  0  0  0
    4.7060   21.1300   15.0070 H   0  0  0  0  0  0  0  0  0  0  0  0
    9.1270   21.4590   19.4570 H   0  0  0  0  0  0  0  0  0  0  0  0
    8.0740   20.7150   20.5260 H   0  0  0  0  0  0  0  0  0  0  0  0
    7.8100   22.2520   16.2550 H   0  0  0  0  0  0  0  0  0  0  0  0
    4.5310   18.5870    8.6400 H   0  0  0  0  0  0  0  0  0  0  0  0
    2.9060   18.3730    9.2880 H   0  0  0  0  0  0  0  0  0  0  0  0
    4.1980   18.9880   10.3290 H   0  0  0  0  0  0  0  0  0  0  0  0
    3.7290   13.3940   12.5340 H   0  0  0  0  0  0  0  0  0  0  0  0
    5.8350   16.6350    8.4790 H   0  0  0  0  0  0  0  0  0  0  0  0
    5.2230   13.2520   10.9530 H   0  0  0  0  0  0  0  0  0  0  0  0
    6.4260   14.3660    9.1320 H   0  0  0  0  0  0  0  0  0  0  0  0
  1  2  2  0  0  0  0
  1  3  1  0  0  0  0
  1 36  1  0  0  0  0
  2  4  1  0  0  0  0
  2 37  1  0  0  0  0
  3  6  2  0  0  0  0
  3 38  1  0  0  0  0
  4  5  2  0  0  0  0
  4 39  1  0  0  0  0
  5  6  1  0  0  0  0
  5 40  1  0  0  0  0
  6  7  1  0  0  0  0
  7  8  1  0  0  0  0
  7  9  1  0  0  0  0
  7 41  1  0  0  0  0
  8 10  1  0  0  0  0
  8 42  1  0  0  0  0
  9 11  1  0  0  0  0
  9 14  2  0  0  0  0
 10 12  2  0  0  0  0
 10 13  1  0  0  0  0
 11 15  1  0  0  0  0
 11 43  1  0  0  0  0
 13 18  1  0  0  0  0
 13 20  2  0  0  0  0
 15 16  1  0  0  0  0
 15 17  1  0  0  0  0
 15 44  1  0  0  0  0
 16 19  1  0  0  0  0
 16 45  1  0  0  0  0
 16 46  1  0  0  0  0
 17 21  1  0  0  0  0
 17 47  1  0  0  0  0
 17 48  1  0  0  0  0
 18 22  2  0  0  0  0
 18 49  1  0  0  0  0
 19 21  1  0  0  0  0
 19 50  1  0  0  0  0
 19 51  1  0  0  0  0
 20 23  1  0  0  0  0
 20 28  1  0  0  0  0
 21 24  1  0  0  0  0
 22 25  1  0  0  0  0
 22 27  1  0  0  0  0
 23 52  1  0  0  0  0
 24 29  2  0  0  0  0
 24 31  1  0  0  0  0
 25 26  1  0  0  0  0
 25 28  2  0  0  0  0
 26 53  1  0  0  0  0
 27 54  1  0  0  0  0
 28 55  1  0  0  0  0
 29 30  1  0  0  0  0
 29 33  1  0  0  0  0
 30 56  1  0  0  0  0
 30 57  1  0  0  0  0
 30 58  1  0  0  0  0
 31 32  1  0  0  0  0
 31 34  2  0  0  0  0
 32 59  1  0  0  0  0
 33 35  2  0  0  0  0
 33 60  1  0  0  0  0
 34 35  1  0  0  0  0
 34 61  1  0  0  0  0
 35 62  1  0  0  0  0
M  END
> <rseq>
1

> <mseq>
446

> <S>
-7.377637

> <rmsd_refine>
1.666219

> <E_conf>
12.50231

> <E_score1>
-10.17043

> <E_refine>
-50.09261

> <E_score2>
-7.377637

>  <$File>
outputs/pdb_4j58_cleaned.pdb_2024_06_17__22_47_40_V2_BS398_MIN1_/SDF/sdf_db.sdf

> <Rec_index>
1

>  <PLIF_raw>
[[8,32,14,26,26,26,26,26,26,24,31,34,35,33,29],[1504,1056,954,1651,1655,1659,1657,1653,1650,823,823,823,823,823,823],[101,70,62,112,112,112,112,112,112,54,54,54,54,54,54],[3,3,2,10,10,10,10,10,10,10,10,10,10,10,10],[1.2,2.4,2.8,1.8,1.8,1.8,1.8,1.8,1.8,0.7,0.7,0.7,0.7,0.7,0.7]]

> <FP:PLIF>
2 20 23 3 4 8 15 47

>  <PLIF_ligidx>
[[24,31,34,35,33,29],14,14,32,32,8,[26,26,26,26,26,26],[26,26,26,26,26,26]]

$$$$
446
  MOE2022           3D

 59 63  0  0  1  0  0  0  0  0999 V2000
    8.0980   21.0360   17.9100 C   0  0  0  0  0  0  0  0  0  0  0  0
    7.5880   21.5830   16.7420 C   0  0  0  0  0  0  0  0  0  0  0  0
    7.3250   20.1510   18.6510 C   0  0  0  0  0  0  0  0  0  0  0  0
    6.0460   19.8050   18.2200 C   0  0  0  0  0  0  0  0  0  0  0  0
    6.3060   21.2350   16.3180 C   0  0  0  0  0  0  0  0  0  0  0  0
    5.8670   21.8350   15.1730 O   0  0  0  0  0  0  0  0  0  0  0  0
    5.5070   20.3210   17.0350 C   0  0  0  0  0  0  0  0  0  0  0  0
    4.0720   19.9240   16.6170 C   0  0  2  0  0  0  0  0  0  0  0  0
    3.6800   18.5310   16.9750 N   0  0  0  0  0  0  0  0  0  0  0  0
    3.7740   20.0480   15.1810 N   0  0  0  0  0  0  0  0  0  0  0  0
    2.9330   18.0110   15.8120 C   0  0  2  0  0  0  0  0  0  0  0  0
    3.1750   19.0420   14.7530 C   0  0  0  0  0  0  0  0  0  0  0  0
    2.6810   18.8720   13.3230 C   0  0  2  0  0  0  0  0  0  0  0  0
    1.4310   17.7720   16.0770 C   0  0  0  0  0  0  0  0  0  0  0  0
    2.8730   17.4590   12.7630 C   0  0  0  0  0  0  0  0  0  0  0  0
    2.9000   18.4960   18.2280 C   0  0  0  0  0  0  0  0  0  0  0  0
    3.3350   19.7860   12.2780 C   0  0  0  0  0  0  0  0  0  0  0  0
    3.0360   17.6350   11.2520 C   0  0  1  0  0  0  0  0  0  0  0  0
    2.1440   17.2530   18.4040 N   0  0  0  0  0  0  0  0  0  0  0  0
    3.5090   18.9950   11.0770 O   0  0  0  0  0  0  0  0  0  0  0  0
    3.9420   16.5960   10.6110 C   0  0  0  0  0  0  0  0  0  0  0  0
    2.2510   16.5200   19.5700 C   0  0  0  0  0  0  0  0  0  0  0  0
    3.4800   15.3240   10.6610 O   0  0  0  0  0  0  0  0  0  0  0  0
    1.2330   16.8890   17.3120 C   0  0  0  0  0  0  0  0  0  0  0  0
    5.0260   16.8430   10.1330 O   0  0  0  0  0  0  0  0  0  0  0  0
    4.1250   14.1450   10.3010 C   0  0  0  0  0  0  0  0  0  0  0  0
    5.5070   13.9780   10.4590 C   0  0  0  0  0  0  0  0  0  0  0  0
    6.0600   12.7590   10.0910 C   0  0  0  0  0  0  0  0  0  0  0  0
    7.3880   12.5720   10.2270 F   0  0  0  0  0  0  0  0  0  0  0  0
    3.0410   16.8080   20.4690 O   0  0  0  0  0  0  0  0  0  0  0  0
    1.4330   15.4380   19.7040 N   0  0  0  0  0  0  0  0  0  0  0  0
    5.2660   11.7340    9.5860 C   0  0  0  0  0  0  0  0  0  0  0  0
    5.8270   10.5570    9.2340 F   0  0  0  0  0  0  0  0  0  0  0  0
    3.8920   11.8980    9.4370 C   0  0  0  0  0  0  0  0  0  0  0  0
    3.3180   13.1160    9.8020 C   0  0  0  0  0  0  0  0  0  0  0  0
    9.0720   21.2940   18.2400 H   0  0  0  0  0  0  0  0  0  0  0  0
    8.1710   22.2650   16.1770 H   0  0  0  0  0  0  0  0  0  0  0  0
    7.7120   19.7350   19.5450 H   0  0  0  0  0  0  0  0  0  0  0  0
    5.4920   19.1300   18.8130 H   0  0  0  0  0  0  0  0  0  0  0  0
    4.9620   21.5160   14.9690 H   0  0  0  0  0  0  0  0  0  0  0  0
    3.3950   20.6040   17.1180 H   0  0  0  0  0  0  0  0  0  0  0  0
    3.3920   17.0740   15.5270 H   0  0  0  0  0  0  0  0  0  0  0  0
    1.6200   19.0810   13.3050 H   0  0  0  0  0  0  0  0  0  0  0  0
    0.9420   18.7320   16.2500 H   0  0  0  0  0  0  0  0  0  0  0  0
    0.9630   17.2970   15.2150 H   0  0  0  0  0  0  0  0  0  0  0  0
    3.7870   17.0320   13.1680 H   0  0  0  0  0  0  0  0  0  0  0  0
    2.0350   16.8020   12.9970 H   0  0  0  0  0  0  0  0  0  0  0  0
    3.5590   18.6620   19.0660 H   0  0  0  0  0  0  0  0  0  0  0  0
    2.2040   19.3250   18.2330 H   0  0  0  0  0  0  0  0  0  0  0  0
    2.7070   20.6490   12.0530 H   0  0  0  0  0  0  0  0  0  0  0  0
    4.3160   20.1290   12.6000 H   0  0  0  0  0  0  0  0  0  0  0  0
    2.0550   17.5790   10.7970 H   0  0  0  0  0  0  0  0  0  0  0  0
    0.2050   16.9420   17.6440 H   0  0  0  0  0  0  0  0  0  0  0  0
    1.4110   15.8620   17.0300 H   0  0  0  0  0  0  0  0  0  0  0  0
    6.1200   14.7460   10.8510 H   0  0  0  0  0  0  0  0  0  0  0  0
    0.9120   15.1120   18.8780 H   0  0  0  0  0  0  0  0  0  0  0  0
    1.6750   14.7480   20.4280 H   0  0  0  0  0  0  0  0  0  0  0  0
    3.2940   11.1120    9.0540 H   0  0  0  0  0  0  0  0  0  0  0  0
    2.2730   13.2630    9.6990 H   0  0  0  0  0  0  0  0  0  0  0  0
  1  2  1  0  0  0  0
  1  3  2  0  0  0  0
  1 36  1  0  0  0  0
  2  5  2  0  0  0  0
  2 37  1  0  0  0  0
  3  4  1  0  0  0  0
  3 38  1  0  0  0  0
  4  7  2  0  0  0  0
  4 39  1  0  0  0  0
  5  6  1  0  0  0  0
  5  7  1  0  0  0  0
  6 40  1  0  0  0  0
  7  8  1  0  0  0  0
  8  9  1  0  0  0  0
  8 10  1  0  0  0  0
  8 41  1  0  0  0  0
  9 11  1  0  0  0  0
  9 16  1  0  0  0  0
 10 12  2  0  0  0  0
 11 12  1  0  0  0  0
 11 14  1  0  0  0  0
 11 42  1  0  0  0  0
 12 13  1  0  0  0  0
 13 15  1  0  0  0  0
 13 17  1  0  0  0  0
 13 43  1  0  0  0  0
 14 24  1  0  0  0  0
 14 44  1  0  0  0  0
 14 45  1  0  0  0  0
 15 18  1  0  0  0  0
 15 46  1  0  0  0  0
 15 47  1  0  0  0  0
 16 19  1  0  0  0  0
 16 48  1  0  0  0  0
 16 49  1  0  0  0  0
 17 20  1  0  0  0  0
 17 50  1  0  0  0  0
 17 51  1  0  0  0  0
 18 20  1  0  0  0  0
 18 21  1  0  0  0  0
 18 52  1  0  0  0  0
 19 22  1  0  0  0  0
 19 24  1  0  0  0  0
 21 23  1  0  0  0  0
 21 25  2  0  0  0  0
 22 30  2  0  0  0  0
 22 31  1  0  0  0  0
 23 26  1  0  0  0  0
 24 53  1  0  0  0  0
 24 54  1  0  0  0  0
 26 27  1  0  0  0  0
 26 35  2  0  0  0  0
 27 28  2  0  0  0  0
 27 55  1  0  0  0  0
 28 29  1  0  0  0  0
 28 32  1  0  0  0  0
 31 56  1  0  0  0  0
 31 57  1  0  0  0  0
 32 33  1  0  0  0  0
 32 34  2  0  0  0  0
 34 35  1  0  0  0  0
 34 58  1  0  0  0  0
 35 59  1  0  0  0  0
M  END
> <rseq>
1

> <mseq>
447

> <S>
-6.869381

> <rmsd_refine>
1.432487

> <E_conf>
-84.55775

> <E_score1>
-10.1705

> <E_refine>
-40.63142

> <E_score2>
-6.869381

>  <$File>
outputs/pdb_4j58_cleaned.pdb_2024_06_17__22_47_40_V2_BS398_MIN1_/SDF/sdf_db.sdf

> <Rec_index>
1

>  <PLIF_raw>
[[9,25,26,27,28,32,34,35],[954,823,1057,1057,1057,1057,1057,1057],[62,54,70,70,70,70,70,70],[2,2,10,10,10,10,10,10],[1.9,1.3,0.6,0.6,0.6,0.6,0.6,0.6]]

> <FP:PLIF>
6 20 23 43

>  <PLIF_ligidx>
[25,9,9,[26,27,28,32,34,35]]

$$$$
447
  MOE2022           3D

 63 66  0  0  1  0  0  0  0  0999 V2000
    6.9220   20.9540   19.3870 C   0  0  0  0  0  0  0  0  0  0  0  0
    6.1160   19.8740   19.0410 C   0  0  0  0  0  0  0  0  0  0  0  0
    4.8810   20.0980   18.4350 C   0  0  0  0  0  0  0  0  0  0  0  0
    4.1220   18.9850   18.0930 O   0  0  0  0  0  0  0  0  0  0  0  0
    2.9690   18.9580   17.1840 C   0  0  1  0  0  0  0  0  0  0  0  0
    4.4430   21.4030   18.1840 C   0  0  0  0  0  0  0  0  0  0  0  0
    6.4950   22.2540   19.1320 C   0  0  0  0  0  0  0  0  0  0  0  0
    5.2560   22.4770   18.5350 C   0  0  0  0  0  0  0  0  0  0  0  0
    3.4080   19.0140   15.7220 C   0  0  0  0  0  0  0  0  0  0  0  0
    4.2170   19.8790   15.3850 O   0  0  0  0  0  0  0  0  0  0  0  0
    2.0540   17.7690   17.5250 C   0  0  2  0  0  0  0  0  0  0  0  0
    2.8510   18.1860   14.8010 N   0  0  0  0  0  0  0  0  0  0  0  0
    1.0060   17.5220   16.4150 C   0  0  2  0  0  0  0  0  0  0  0  0
    1.8400   17.1400   15.1460 C   0  0  1  0  0  0  0  0  0  0  0  0
    1.4470   18.0030   18.7830 O   0  0  0  0  0  0  0  0  0  0  0  0
    3.1930   18.3450   13.3750 C   0  0  0  0  0  0  0  0  0  0  0  0
    0.2150   18.7540   16.1480 N   0  0  0  0  0  0  0  0  0  0  0  0
    0.0590   16.3850   16.8750 C   0  0  0  0  0  0  0  0  0  0  0  0
   -1.1230   16.3030   16.1070 O   0  0  0  0  0  0  0  0  0  0  0  0
    1.0030   16.8420   13.9630 O   0  0  0  0  0  0  0  0  0  0  0  0
    0.6240   15.4430   13.6630 C   0  0  2  0  0  0  0  0  0  0  0  0
    1.7960   14.5710   13.1370 C   0  0  0  0  0  0  0  0  0  0  0  0
   -0.6670   15.4190   12.8420 C   0  0  0  0  0  0  0  0  0  0  0  0
   -1.7590   15.2600   13.3810 O   0  0  0  0  0  0  0  0  0  0  0  0
    2.4220   14.8930   11.7620 C   0  0  2  0  0  0  0  0  0  0  0  0
   -0.7090   15.5990   11.5050 O   0  0  0  0  0  0  0  0  0  0  0  0
    0.3350   15.5240   10.5080 C   0  0  1  0  0  0  0  0  0  0  0  0
    3.7890   15.1760   11.9250 O   0  0  0  0  0  0  0  0  0  0  0  0
    0.0250   16.3050    9.2280 C   0  0  1  0  0  0  0  0  0  0  0  0
   -0.4960   17.5840    9.5440 O   0  0  0  0  0  0  0  0  0  0  0  0
    1.7130   16.0040   10.9670 C   0  0  2  0  0  0  0  0  0  0  0  0
    1.3930   16.4460    8.5470 C   0  0  1  0  0  0  0  0  0  0  0  0
    2.3860   16.4530    9.6860 C   0  0  0  0  0  0  0  0  0  0  0  0
    1.6370   15.3220    7.6710 O   0  0  0  0  0  0  0  0  0  0  0  0
    3.4760   16.9520    9.6180 O   0  0  0  0  0  0  0  0  0  0  0  0
    7.8660   20.7870   19.8390 H   0  0  0  0  0  0  0  0  0  0  0  0
    6.4470   18.8890   19.2290 H   0  0  0  0  0  0  0  0  0  0  0  0
    2.3870   19.8480   17.3760 H   0  0  0  0  0  0  0  0  0  0  0  0
    3.5060   21.5880   17.7300 H   0  0  0  0  0  0  0  0  0  0  0  0
    7.1140   23.0730   19.3910 H   0  0  0  0  0  0  0  0  0  0  0  0
    4.9340   23.4670   18.3420 H   0  0  0  0  0  0  0  0  0  0  0  0
    2.6830   16.8810   17.6140 H   0  0  0  0  0  0  0  0  0  0  0  0
    2.3820   16.2310   15.3710 H   0  0  0  0  0  0  0  0  0  0  0  0
    2.1030   18.3870   19.3740 H   0  0  0  0  0  0  0  0  0  0  0  0
    3.9800   19.0630   13.1930 H   0  0  0  0  0  0  0  0  0  0  0  0
    3.5270   17.4130   12.9510 H   0  0  0  0  0  0  0  0  0  0  0  0
    2.3400   18.6860   12.8060 H   0  0  0  0  0  0  0  0  0  0  0  0
    0.8180   19.4890   15.8070 H   0  0  0  0  0  0  0  0  0  0  0  0
   -0.2450   19.0510   16.9980 H   0  0  0  0  0  0  0  0  0  0  0  0
    0.5820   15.4340   16.8380 H   0  0  0  0  0  0  0  0  0  0  0  0
   -0.2570   16.5540   17.9030 H   0  0  0  0  0  0  0  0  0  0  0  0
   -1.4490   17.1960   15.9600 H   0  0  0  0  0  0  0  0  0  0  0  0
    0.3640   15.0060   14.6150 H   0  0  0  0  0  0  0  0  0  0  0  0
    2.5780   14.5700   13.8970 H   0  0  0  0  0  0  0  0  0  0  0  0
    1.4280   13.5490   13.0820 H   0  0  0  0  0  0  0  0  0  0  0  0
    2.3700   13.9870   11.1550 H   0  0  0  0  0  0  0  0  0  0  0  0
    0.4160   14.4720   10.2270 H   0  0  0  0  0  0  0  0  0  0  0  0
    4.2310   14.3710   12.2100 H   0  0  0  0  0  0  0  0  0  0  0  0
   -0.6790   15.7620    8.5970 H   0  0  0  0  0  0  0  0  0  0  0  0
   -1.3110   17.4680   10.0400 H   0  0  0  0  0  0  0  0  0  0  0  0
    1.5950   16.8930   11.5630 H   0  0  0  0  0  0  0  0  0  0  0  0
    1.4520   17.3510    7.9560 H   0  0  0  0  0  0  0  0  0  0  0  0
    2.4990   15.4230    7.2340 H   0  0  0  0  0  0  0  0  0  0  0  0
  1  2  1  0  0  0  0
  1  7  2  0  0  0  0
  1 36  1  0  0  0  0
  2  3  2  0  0  0  0
  2 37  1  0  0  0  0
  3  4  1  0  0  0  0
  3  6  1  0  0  0  0
  4  5  1  0  0  0  0
  5  9  1  0  0  0  0
  5 11  1  0  0  0  0
  5 38  1  0  0  0  0
  6  8  2  0  0  0  0
  6 39  1  0  0  0  0
  7  8  1  0  0  0  0
  7 40  1  0  0  0  0
  8 41  1  0  0  0  0
  9 10  2  0  0  0  0
  9 12  1  0  0  0  0
 11 13  1  0  0  0  0
 11 15  1  0  0  0  0
 11 42  1  0  0  0  0
 12 14  1  0  0  0  0
 12 16  1  0  0  0  0
 13 14  1  0  0  0  0
 13 17  1  0  0  0  0
 13 18  1  0  0  0  0
 14 20  1  0  0  0  0
 14 43  1  0  0  0  0
 15 44  1  0  0  0  0
 16 45  1  0  0  0  0
 16 46  1  0  0  0  0
 16 47  1  0  0  0  0
 17 48  1  0  0  0  0
 17 49  1  0  0  0  0
 18 19  1  0  0  0  0
 18 50  1  0  0  0  0
 18 51  1  0  0  0  0
 19 52  1  0  0  0  0
 20 21  1  0  0  0  0
 21 22  1  0  0  0  0
 21 23  1  0  0  0  0
 21 53  1  0  0  0  0
 22 25  1  0  0  0  0
 22 54  1  0  0  0  0
 22 55  1  0  0  0  0
 23 24  2  0  0  0  0
 23 26  1  0  0  0  0
 25 28  1  0  0  0  0
 25 31  1  0  0  0  0
 25 56  1  0  0  0  0
 26 27  1  0  0  0  0
 27 29  1  0  0  0  0
 27 31  1  0  0  0  0
 27 57  1  0  0  0  0
 28 58  1  0  0  0  0
 29 30  1  0  0  0  0
 29 32  1  0  0  0  0
 29 59  1  0  0  0  0
 30 60  1  0  0  0  0
 31 33  1  0  0  0  0
 31 61  1  0  0  0  0
 32 33  1  0  0  0  0
 32 34  1  0  0  0  0
 32 62  1  0  0  0  0
 33 35  2  0  0  0  0
 34 63  1  0  0  0  0
M  END
> <rseq>
1

> <mseq>
448

> <S>
-5.529781

> <rmsd_refine>
2.303093

> <E_conf>
162.2212

> <E_score1>
-11.41795

> <E_refine>
-29.65716

> <E_score2>
-5.529781

>  <$File>
outputs/pdb_4j58_cleaned.pdb_2024_06_17__22_47_40_V2_BS398_MIN1_/SDF/sdf_db.sdf

> <Rec_index>
1

>  <PLIF_raw>
[[],[],[],[],[]]

>  <PLIF_ligidx>
[]

$$$$
448
  MOE2022           3D

 61 64  0  0  1  0  0  0  0  0999 V2000
    2.6730   16.2570   20.9510 C   0  0  0  0  0  0  0  0  0  0  0  0
    1.3870   15.7940   21.1810 C   0  0  0  0  0  0  0  0  0  0  0  0
    2.9560   16.9930   19.8090 C   0  0  0  0  0  0  0  0  0  0  0  0
    0.3810   16.0520   20.2570 C   0  0  0  0  0  0  0  0  0  0  0  0
    0.6680   16.7780   19.1050 C   0  0  0  0  0  0  0  0  0  0  0  0
    1.9560   17.2640   18.8760 C   0  0  0  0  0  0  0  0  0  0  0  0
    2.2460   18.0330   17.5970 C   0  0  1  0  0  0  0  0  0  0  0  0
    3.3970   18.9430   17.7140 N   0  0  0  0  0  0  0  0  0  0  0  0
    2.4200   17.0730   16.4340 C   0  0  0  0  0  0  0  0  0  0  0  0
    3.7120   19.8910   16.7680 C   0  0  0  0  0  0  0  0  0  0  0  0
    1.4920   17.1370   15.4690 N   0  0  0  0  0  0  0  0  0  0  0  0
    2.8480   20.1690   15.9380 O   0  0  0  0  0  0  0  0  0  0  0  0
    5.0550   20.4970   16.7890 C   0  0  0  0  0  0  0  0  0  0  0  0
    3.3790   16.3010   16.3730 O   0  0  0  0  0  0  0  0  0  0  0  0
    1.5940   16.4020   14.2200 C   0  0  1  0  0  0  0  0  0  0  0  0
    0.8020   15.1050   14.2170 C   0  0  0  0  0  0  0  0  0  0  0  0
    1.0500   17.1440   13.0050 C   0  0  0  0  0  0  0  0  0  0  0  0
    5.9500   20.2220   17.8400 C   0  0  0  0  0  0  0  0  0  0  0  0
    0.2760   14.9880   12.7780 C   0  0  0  0  0  0  0  0  0  0  0  0
    5.5130   21.3490   15.7610 C   0  0  0  0  0  0  0  0  0  0  0  0
    0.8040   16.1190   11.9860 N   0  0  0  0  0  0  0  0  0  0  0  0
    7.2360   20.7570   17.8560 C   0  0  0  0  0  0  0  0  0  0  0  0
    4.7320   21.6620   14.6890 O   0  0  0  0  0  0  0  0  0  0  0  0
    1.9720   15.9150   11.2220 C   0  0  0  0  0  0  0  0  0  0  0  0
    7.6560   21.5910   16.8210 C   0  0  0  0  0  0  0  0  0  0  0  0
    6.7950   21.8940   15.7760 C   0  0  0  0  0  0  0  0  0  0  0  0
    8.1870   20.4200   18.9800 C   0  0  0  0  0  0  0  0  0  0  0  0
    2.2470   16.8280   10.1960 C   0  0  0  0  0  0  0  0  0  0  0  0
    2.8950   14.8990   11.5180 C   0  0  0  0  0  0  0  0  0  0  0  0
    3.4610   16.7700    9.5270 C   0  0  0  0  0  0  0  0  0  0  0  0
    4.4210   15.8080    9.8690 C   0  0  0  0  0  0  0  0  0  0  0  0
    5.7400   15.8140    9.2600 C   0  0  0  0  0  0  0  0  0  0  0  0
    4.1060   14.8570   10.8490 C   0  0  0  0  0  0  0  0  0  0  0  0
    6.7270   15.5390    9.9900 O   0  5  0  0  0  0  0  0  0  0  0  0
    5.8820   16.1160    8.0450 O   0  0  0  0  0  0  0  0  0  0  0  0
    3.4400   16.0460   21.6470 H   0  0  0  0  0  0  0  0  0  0  0  0
    1.1870   15.2460   22.0600 H   0  0  0  0  0  0  0  0  0  0  0  0
    3.9390   17.3430   19.6560 H   0  0  0  0  0  0  0  0  0  0  0  0
   -0.6020   15.6960   20.4260 H   0  0  0  0  0  0  0  0  0  0  0  0
   -0.1000   16.9610   18.3980 H   0  0  0  0  0  0  0  0  0  0  0  0
    1.3760   18.6470   17.4020 H   0  0  0  0  0  0  0  0  0  0  0  0
    4.1230   18.6710   18.3900 H   0  0  0  0  0  0  0  0  0  0  0  0
    0.7280   17.7900   15.5630 H   0  0  0  0  0  0  0  0  0  0  0  0
    2.6390   16.1740   14.0030 H   0  0  0  0  0  0  0  0  0  0  0  0
    1.4530   14.2680   14.4620 H   0  0  0  0  0  0  0  0  0  0  0  0
   -0.0360   15.1540   14.9130 H   0  0  0  0  0  0  0  0  0  0  0  0
    0.1190   17.6360   13.2520 H   0  0  0  0  0  0  0  0  0  0  0  0
    1.7360   17.9130   12.6730 H   0  0  0  0  0  0  0  0  0  0  0  0
    5.6570   19.5920   18.6380 H   0  0  0  0  0  0  0  0  0  0  0  0
    0.5140   14.0310   12.3340 H   0  0  0  0  0  0  0  0  0  0  0  0
   -0.8050   15.0420   12.7870 H   0  0  0  0  0  0  0  0  0  0  0  0
    3.8440   21.2580   14.7910 H   0  0  0  0  0  0  0  0  0  0  0  0
    8.6360   21.9970   16.8300 H   0  0  0  0  0  0  0  0  0  0  0  0
    7.1120   22.5330   14.9920 H   0  0  0  0  0  0  0  0  0  0  0  0
    8.8140   19.5740   18.7000 H   0  0  0  0  0  0  0  0  0  0  0  0
    8.8350   21.2670   19.2080 H   0  0  0  0  0  0  0  0  0  0  0  0
    7.6400   20.1580   19.8870 H   0  0  0  0  0  0  0  0  0  0  0  0
    1.5370   17.5730    9.9480 H   0  0  0  0  0  0  0  0  0  0  0  0
    2.6990   14.1810   12.2690 H   0  0  0  0  0  0  0  0  0  0  0  0
    3.6740   17.4740    8.7640 H   0  0  0  0  0  0  0  0  0  0  0  0
    4.8110   14.1040   11.0950 H   0  0  0  0  0  0  0  0  0  0  0  0
  1  2  2  0  0  0  0
  1  3  1  0  0  0  0
  1 36  1  0  0  0  0
  2  4  1  0  0  0  0
  2 37  1  0  0  0  0
  3  6  2  0  0  0  0
  3 38  1  0  0  0  0
  4  5  2  0  0  0  0
  4 39  1  0  0  0  0
  5  6  1  0  0  0  0
  5 40  1  0  0  0  0
  6  7  1  0  0  0  0
  7  8  1  0  0  0  0
  7  9  1  0  0  0  0
  7 41  1  0  0  0  0
  8 10  1  0  0  0  0
  8 42  1  0  0  0  0
  9 11  1  0  0  0  0
  9 14  2  0  0  0  0
 10 12  2  0  0  0  0
 10 13  1  0  0  0  0
 11 15  1  0  0  0  0
 11 43  1  0  0  0  0
 13 18  1  0  0  0  0
 13 20  2  0  0  0  0
 15 16  1  0  0  0  0
 15 17  1  0  0  0  0
 15 44  1  0  0  0  0
 16 19  1  0  0  0  0
 16 45  1  0  0  0  0
 16 46  1  0  0  0  0
 17 21  1  0  0  0  0
 17 47  1  0  0  0  0
 17 48  1  0  0  0  0
 18 22  2  0  0  0  0
 18 49  1  0  0  0  0
 19 21  1  0  0  0  0
 19 50  1  0  0  0  0
 19 51  1  0  0  0  0
 20 23  1  0  0  0  0
 20 26  1  0  0  0  0
 21 24  1  0  0  0  0
 22 25  1  0  0  0  0
 22 27  1  0  0  0  0
 23 52  1  0  0  0  0
 24 28  1  0  0  0  0
 24 29  2  0  0  0  0
 25 26  2  0  0  0  0
 25 53  1  0  0  0  0
 26 54  1  0  0  0  0
 27 55  1  0  0  0  0
 27 56  1  0  0  0  0
 27 57  1  0  0  0  0
 28 30  2  0  0  0  0
 28 58  1  0  0  0  0
 29 33  1  0  0  0  0
 29 59  1  0  0  0  0
 30 31  1  0  0  0  0
 30 60  1  0  0  0  0
 31 32  1  0  0  0  0
 31 33  2  0  0  0  0
 32 34  1  0  0  0  0
 32 35  2  0  0  0  0
 33 61  1  0  0  0  0
M  CHG  1  34  -1
M  END
> <rseq>
1

> <mseq>
449

> <S>
-7.462025

> <rmsd_refine>
1.809736

> <E_conf>
-48.3947

> <E_score1>
-10.2909

> <E_refine>
-40.55116

> <E_score2>
-7.462025

>  <$File>
outputs/pdb_4j58_cleaned.pdb_2024_06_17__22_47_40_V2_BS398_MIN1_/SDF/sdf_db.sdf

> <Rec_index>
1

>  <PLIF_raw>
[[14,34,34],[954,823,823],[62,54,54],[2,2,7],[2.8,2.1,3.147234037]]

> <FP:PLIF>
6 19 1 20 23

>  <PLIF_ligidx>
[34,34,34,14,14]

$$$$
449
  MOE2022           3D

 59 62  0  0  1  0  0  0  0  0999 V2000
    3.3650   17.3420   19.5550 O   0  0  0  0  0  0  0  0  0  0  0  0
    2.3300   16.9900   18.9790 C   0  0  0  0  0  0  0  0  0  0  0  0
    1.2150   16.3590   19.6330 C   0  0  0  0  0  0  0  0  0  0  0  0
    2.2220   17.1920   17.6000 N   0  0  0  0  0  0  0  0  0  0  0  0
    0.1560   15.9360   18.8850 C   0  0  0  0  0  0  0  0  0  0  0  0
    1.2150   16.5170   16.8860 C   0  0  0  0  0  0  0  0  0  0  0  0
    0.1970   16.0010   17.5120 N   0  0  0  0  0  0  0  0  0  0  0  0
    1.3860   16.3290   15.4520 C   0  0  0  0  0  0  0  0  0  0  0  0
    3.1550   18.1140   16.8730 C   0  0  0  0  0  0  0  0  0  0  0  0
    1.2550   16.1620   21.1380 C   0  0  0  0  0  0  0  0  0  0  0  0
   -1.0850   15.2930   19.4710 C   0  0  0  0  0  0  0  0  0  0  0  0
    3.2830   19.5560   17.4200 C   0  0  1  0  0  0  0  0  0  0  0  0
    4.5690   19.8100   18.2320 C   0  0  0  0  0  0  0  0  0  0  0  0
    0.4130   16.7380   14.5290 C   0  0  0  0  0  0  0  0  0  0  0  0
    3.3890   20.6150   16.3240 C   0  0  0  0  0  0  0  0  0  0  0  0
    0.5940   16.5110   13.1690 C   0  0  0  0  0  0  0  0  0  0  0  0
    1.7490   15.8640   12.7260 C   0  0  0  0  0  0  0  0  0  0  0  0
    2.7340   20.5890   15.2830 O   0  0  0  0  0  0  0  0  0  0  0  0
    2.5400   15.6820   14.9860 C   0  0  0  0  0  0  0  0  0  0  0  0
    4.7640   21.3160   18.0220 C   0  0  2  0  0  0  0  0  0  0  0  0
    4.2990   21.5320   16.6570 N   0  0  0  0  0  0  0  0  0  0  0  0
    1.9010   15.6620   11.3670 O   0  0  0  0  0  0  0  0  0  0  0  0
    4.5690   22.7450   15.8860 C   0  0  0  0  0  0  0  0  0  0  0  0
    3.0250   15.0500   10.8540 C   0  0  0  0  0  0  0  0  0  0  0  0
    2.7220   15.4410   13.6350 C   0  0  0  0  0  0  0  0  0  0  0  0
    3.0960   13.6550   10.8420 C   0  0  0  0  0  0  0  0  0  0  0  0
    4.0790   15.8430   10.3990 C   0  0  0  0  0  0  0  0  0  0  0  0
    5.2340   15.2120    9.9500 C   0  0  0  0  0  0  0  0  0  0  0  0
    6.2880   15.9650    9.5090 O   0  0  0  0  0  0  0  0  0  0  0  0
    6.2060   21.7760   18.3010 C   0  0  0  0  0  0  0  0  0  0  0  0
    5.3250   13.8160    9.9500 C   0  0  0  0  0  0  0  0  0  0  0  0
    7.1120   21.3640   17.5410 O   0  0  0  0  0  0  0  0  0  0  0  0
    6.4700   13.2040    9.5170 O   0  0  0  0  0  0  0  0  0  0  0  0
    6.3710   22.5310   19.2850 O   0  5  0  0  0  0  0  0  0  0  0  0
    4.2570   13.0340   10.3860 C   0  0  0  0  0  0  0  0  0  0  0  0
    4.1310   17.6700   16.7740 H   0  0  0  0  0  0  0  0  0  0  0  0
    2.8390   18.2120   15.8470 H   0  0  0  0  0  0  0  0  0  0  0  0
    0.5130   16.7740   21.6320 H   0  0  0  0  0  0  0  0  0  0  0  0
    1.0630   15.1310   21.3920 H   0  0  0  0  0  0  0  0  0  0  0  0
    2.2190   16.3990   21.5640 H   0  0  0  0  0  0  0  0  0  0  0  0
   -1.3220   15.6650   20.4570 H   0  0  0  0  0  0  0  0  0  0  0  0
   -1.9510   15.4810   18.8510 H   0  0  0  0  0  0  0  0  0  0  0  0
   -0.9680   14.2200   19.5360 H   0  0  0  0  0  0  0  0  0  0  0  0
    2.4030   19.7890   18.0190 H   0  0  0  0  0  0  0  0  0  0  0  0
    4.4680   19.5720   19.2880 H   0  0  0  0  0  0  0  0  0  0  0  0
    5.4090   19.2700   17.7930 H   0  0  0  0  0  0  0  0  0  0  0  0
   -0.4660   17.2220   14.8710 H   0  0  0  0  0  0  0  0  0  0  0  0
   -0.1400   16.8250   12.4720 H   0  0  0  0  0  0  0  0  0  0  0  0
    3.2780   15.3660   15.6770 H   0  0  0  0  0  0  0  0  0  0  0  0
    4.0930   21.8500   18.6980 H   0  0  0  0  0  0  0  0  0  0  0  0
    5.6290   22.9500   15.8340 H   0  0  0  0  0  0  0  0  0  0  0  0
    4.2080   22.6660   14.8700 H   0  0  0  0  0  0  0  0  0  0  0  0
    4.0920   23.6050   16.3360 H   0  0  0  0  0  0  0  0  0  0  0  0
    3.5930   14.9350   13.3110 H   0  0  0  0  0  0  0  0  0  0  0  0
    2.2790   13.0760   11.1880 H   0  0  0  0  0  0  0  0  0  0  0  0
    4.0010   16.9000   10.4090 H   0  0  0  0  0  0  0  0  0  0  0  0
    6.0390   16.9080    9.4200 H   0  0  0  0  0  0  0  0  0  0  0  0
    7.1190   13.8920    9.2690 H   0  0  0  0  0  0  0  0  0  0  0  0
    4.3320   11.9770   10.3760 H   0  0  0  0  0  0  0  0  0  0  0  0
  1  2  2  0  0  0  0
  2  3  1  0  0  0  0
  2  4  1  0  0  0  0
  3  5  2  0  0  0  0
  3 10  1  0  0  0  0
  4  6  1  0  0  0  0
  4  9  1  0  0  0  0
  5  7  1  0  0  0  0
  5 11  1  0  0  0  0
  6  7  2  0  0  0  0
  6  8  1  0  0  0  0
  8 14  1  0  0  0  0
  8 19  2  0  0  0  0
  9 12  1  0  0  0  0
  9 36  1  0  0  0  0
  9 37  1  0  0  0  0
 10 38  1  0  0  0  0
 10 39  1  0  0  0  0
 10 40  1  0  0  0  0
 11 41  1  0  0  0  0
 11 42  1  0  0  0  0
 11 43  1  0  0  0  0
 12 13  1  0  0  0  0
 12 15  1  0  0  0  0
 12 44  1  0  0  0  0
 13 20  1  0  0  0  0
 13 45  1  0  0  0  0
 13 46  1  0  0  0  0
 14 16  2  0  0  0  0
 14 47  1  0  0  0  0
 15 18  2  0  0  0  0
 15 21  1  0  0  0  0
 16 17  1  0  0  0  0
 16 48  1  0  0  0  0
 17 22  1  0  0  0  0
 17 25  2  0  0  0  0
 19 25  1  0  0  0  0
 19 49  1  0  0  0  0
 20 21  1  0  0  0  0
 20 30  1  0  0  0  0
 20 50  1  0  0  0  0
 21 23  1  0  0  0  0
 22 24  1  0  0  0  0
 23 51  1  0  0  0  0
 23 52  1  0  0  0  0
 23 53  1  0  0  0  0
 24 26  2  0  0  0  0
 24 27  1  0  0  0  0
 25 54  1  0  0  0  0
 26 35  1  0  0  0  0
 26 55  1  0  0  0  0
 27 28  2  0  0  0  0
 27 56  1  0  0  0  0
 28 29  1  0  0  0  0
 28 31  1  0  0  0  0
 29 57  1  0  0  0  0
 30 32  2  0  0  0  0
 30 34  1  0  0  0  0
 31 33  1  0  0  0  0
 31 35  2  0  0  0  0
 33 58  1  0  0  0  0
 35 59  1  0  0  0  0
M  CHG  1  34  -1
M  END
> <rseq>
1

> <mseq>
450

> <S>
-6.944189

> <rmsd_refine>
1.431406

> <E_conf>
-55.17771

> <E_score1>
-11.96152

> <E_refine>
-36.99287

> <E_score2>
-6.944189

>  <$File>
outputs/pdb_4j58_cleaned.pdb_2024_06_17__22_47_40_V2_BS398_MIN1_/SDF/sdf_db.sdf

> <Rec_index>
1

>  <PLIF_raw>
[[29,34,2,4,6,7,5,3,2,4,6,7,5,3],[2222,1872,954,954,954,954,954,954,1519,1519,1519,1519,1519,1519],[148,125,62,62,62,62,62,62,102,102,102,102,102,102],[3,7,10,10,10,10,10,10,10,10,10,10,10,10],[0.7,3.344665582,1.5,1.5,1.5,1.5,1.5,1.5,0.5,0.5,0.5,0.5,0.5,0.5]]

> <FP:PLIF>
21 30 22 13 39

>  <PLIF_ligidx>
[[2,4,6,7,5,3],[2,4,6,7,5,3],[2,4,6,7,5,3],34,29]

$$$$
450
  MOE2022           3D

 63 64  0  0  1  0  0  0  0  0999 V2000
    5.1610   14.8450    9.9590 C   0  0  0  0  0  0  0  0  0  0  0  0
    4.4150   14.7720   11.1290 C   0  0  0  0  0  0  0  0  0  0  0  0
    3.6770   15.8860   11.5670 C   0  0  0  0  0  0  0  0  0  0  0  0
    5.9200   13.7680    9.5780 O   0  0  0  0  0  0  0  0  0  0  0  0
    3.6550   17.0420   10.7610 C   0  0  0  0  0  0  0  0  0  0  0  0
    2.9990   15.8460   12.8650 C   0  0  0  0  0  0  0  0  0  0  0  0
    2.7300   17.0510   13.4770 N   0  0  0  0  0  0  0  0  0  0  0  0
    2.7010   14.8040   13.4410 O   0  0  0  0  0  0  0  0  0  0  0  0
    5.1490   16.0090    9.1870 C   0  0  0  0  0  0  0  0  0  0  0  0
    2.2120   17.3140   14.8040 C   0  0  0  0  0  0  0  0  0  0  0  0
    2.6220   16.6570   15.9330 C   0  0  0  0  0  0  0  0  0  0  0  0
    1.3150   18.4290   14.8880 C   0  0  0  0  0  0  0  0  0  0  0  0
    3.5800   15.6960   15.9300 O   0  0  0  0  0  0  0  0  0  0  0  0
    0.8740   19.0430   13.9090 O   0  0  0  0  0  0  0  0  0  0  0  0
    0.9700   18.8800   16.1660 N   0  0  0  0  0  0  0  0  0  0  0  0
    5.8820   16.0840    8.0410 O   0  0  0  0  0  0  0  0  0  0  0  0
    2.1030   17.0040   17.2000 N   0  0  0  0  0  0  0  0  0  0  0  0
    0.4350   20.2510   16.3240 C   0  0  0  0  0  0  0  0  0  0  0  0
    4.3880   17.1040    9.5800 C   0  0  0  0  0  0  0  0  0  0  0  0
    1.3050   18.1460   17.3210 C   0  0  0  0  0  0  0  0  0  0  0  0
    1.4850   21.3560   16.0850 C   0  0  0  0  0  0  0  0  0  0  0  0
    0.9340   18.5280   18.4230 O   0  0  0  0  0  0  0  0  0  0  0  0
    2.5250   16.2910   18.4510 C   0  0  0  0  0  0  0  0  0  0  0  0
    2.8140   21.1580   16.8400 C   0  0  0  0  0  0  0  0  0  0  0  0
    3.8270   22.2490   16.4580 C   0  0  0  0  0  0  0  0  0  0  0  0
    5.2680   21.9190   16.8910 C   0  0  0  0  0  0  0  0  0  0  0  0
    5.5040   21.8550   18.4170 C   0  0  2  0  0  0  0  0  0  0  0  0
    5.2030   23.1340   18.9530 O   0  0  0  0  0  0  0  0  0  0  0  0
    1.4820   15.9490   19.5130 C   0  0  0  0  0  0  0  0  0  0  0  0
    0.5510   15.1650   19.2220 O   0  5  0  0  0  0  0  0  0  0  0  0
    6.9460   21.4200   18.8140 C   0  0  0  0  0  0  0  0  0  0  0  0
    1.6330   16.4460   20.6520 O   0  0  0  0  0  0  0  0  0  0  0  0
    7.2260   19.9610   18.4350 C   0  0  0  0  0  0  0  0  0  0  0  0
    8.0560   22.2980   18.2120 C   0  0  0  0  0  0  0  0  0  0  0  0
    7.0720   21.4670   20.2180 O   0  0  0  0  0  0  0  0  0  0  0  0
    4.4260   13.8830   11.7040 H   0  0  0  0  0  0  0  0  0  0  0  0
    5.8310   13.0400   10.2260 H   0  0  0  0  0  0  0  0  0  0  0  0
    3.0790   17.8840   11.0480 H   0  0  0  0  0  0  0  0  0  0  0  0
    2.8470   17.8810   12.8750 H   0  0  0  0  0  0  0  0  0  0  0  0
    3.7240   15.3790   15.0150 H   0  0  0  0  0  0  0  0  0  0  0  0
    6.3520   15.2390    7.8980 H   0  0  0  0  0  0  0  0  0  0  0  0
   -0.3970   20.3990   15.6490 H   0  0  0  0  0  0  0  0  0  0  0  0
   -0.0030   20.3880   17.3030 H   0  0  0  0  0  0  0  0  0  0  0  0
    4.3700   17.9810    8.9840 H   0  0  0  0  0  0  0  0  0  0  0  0
    1.6930   21.3920   15.0150 H   0  0  0  0  0  0  0  0  0  0  0  0
    1.0470   22.3120   16.3750 H   0  0  0  0  0  0  0  0  0  0  0  0
    2.9740   15.3570   18.1720 H   0  0  0  0  0  0  0  0  0  0  0  0
    3.3110   16.8640   18.9210 H   0  0  0  0  0  0  0  0  0  0  0  0
    2.6290   21.1790   17.9150 H   0  0  0  0  0  0  0  0  0  0  0  0
    3.2380   20.1890   16.5760 H   0  0  0  0  0  0  0  0  0  0  0  0
    3.8310   22.3560   15.3730 H   0  0  0  0  0  0  0  0  0  0  0  0
    3.5130   23.2030   16.8840 H   0  0  0  0  0  0  0  0  0  0  0  0
    5.5380   20.9640   16.4430 H   0  0  0  0  0  0  0  0  0  0  0  0
    5.9210   22.6810   16.4650 H   0  0  0  0  0  0  0  0  0  0  0  0
    4.8070   21.1340   18.8460 H   0  0  0  0  0  0  0  0  0  0  0  0
    4.2980   23.3470   18.7110 H   0  0  0  0  0  0  0  0  0  0  0  0
    6.4260   19.3220   18.8080 H   0  0  0  0  0  0  0  0  0  0  0  0
    7.2970   19.8600   17.3540 H   0  0  0  0  0  0  0  0  0  0  0  0
    8.1730   19.6350   18.8710 H   0  0  0  0  0  0  0  0  0  0  0  0
    7.8460   23.3490   18.4070 H   0  0  0  0  0  0  0  0  0  0  0  0
    9.0200   22.0360   18.6530 H   0  0  0  0  0  0  0  0  0  0  0  0
    8.1210   22.1480   17.1340 H   0  0  0  0  0  0  0  0  0  0  0  0
    7.0890   22.3910   20.4770 H   0  0  0  0  0  0  0  0  0  0  0  0
  1  2  1  0  0  0  0
  1  4  1  0  0  0  0
  1  9  2  0  0  0  0
  2  3  2  0  0  0  0
  2 36  1  0  0  0  0
  3  5  1  0  0  0  0
  3  6  1  0  0  0  0
  4 37  1  0  0  0  0
  5 19  2  0  0  0  0
  5 38  1  0  0  0  0
  6  7  1  0  0  0  0
  6  8  2  0  0  0  0
  7 10  1  0  0  0  0
  7 39  1  0  0  0  0
  9 16  1  0  0  0  0
  9 19  1  0  0  0  0
 10 11  2  0  0  0  0
 10 12  1  0  0  0  0
 11 13  1  0  0  0  0
 11 17  1  0  0  0  0
 12 14  2  0  0  0  0
 12 15  1  0  0  0  0
 13 40  1  0  0  0  0
 15 18  1  0  0  0  0
 15 20  1  0  0  0  0
 16 41  1  0  0  0  0
 17 20  1  0  0  0  0
 17 23  1  0  0  0  0
 18 21  1  0  0  0  0
 18 42  1  0  0  0  0
 18 43  1  0  0  0  0
 19 44  1  0  0  0  0
 20 22  2  0  0  0  0
 21 24  1  0  0  0  0
 21 45  1  0  0  0  0
 21 46  1  0  0  0  0
 23 29  1  0  0  0  0
 23 47  1  0  0  0  0
 23 48  1  0  0  0  0
 24 25  1  0  0  0  0
 24 49  1  0  0  0  0
 24 50  1  0  0  0  0
 25 26  1  0  0  0  0
 25 51  1  0  0  0  0
 25 52  1  0  0  0  0
 26 27  1  0  0  0  0
 26 53  1  0  0  0  0
 26 54  1  0  0  0  0
 27 28  1  0  0  0  0
 27 31  1  0  0  0  0
 27 55  1  0  0  0  0
 28 56  1  0  0  0  0
 29 30  1  0  0  0  0
 29 32  2  0  0  0  0
 31 33  1  0  0  0  0
 31 34  1  0  0  0  0
 31 35  1  0  0  0  0
 33 57  1  0  0  0  0
 33 58  1  0  0  0  0
 33 59  1  0  0  0  0
 34 60  1  0  0  0  0
 34 61  1  0  0  0  0
 34 62  1  0  0  0  0
 35 63  1  0  0  0  0
M  CHG  1  30  -1
M  END
> <rseq>
1

> <mseq>
451

> <S>
-7.15187

> <rmsd_refine>
1.345785

> <E_conf>
-145.5033

> <E_score1>
-13.58276

> <E_refine>
-42.55477

> <E_score2>
-7.15187

>  <$File>
outputs/pdb_4j58_cleaned.pdb_2024_06_17__22_47_40_V2_BS398_MIN1_/SDF/sdf_db.sdf

> <Rec_index>
1

>  <PLIF_raw>
[[30,10,11,17,20,15,12],[1212,954,954,954,954,954,954],[81,62,62,62,62,62,62],[7,10,10,10,10,10,10],[1.141330899,1.3,1.3,1.3,1.3,1.3,1.3]]

> <FP:PLIF>
21 30 24

>  <PLIF_ligidx>
[[10,11,17,20,15,12],[10,11,17,20,15,12],30]

$$$$
451
  MOE2022           3D

 62 65  0  0  1  0  0  0  0  0999 V2000
    1.4930   16.1480   20.5630 C   0  0  0  0  0  0  0  0  0  0  0  0
    0.1620   15.7750   20.4110 C   0  0  0  0  0  0  0  0  0  0  0  0
    2.1760   16.7320   19.5000 C   0  0  0  0  0  0  0  0  0  0  0  0
   -0.4800   15.9690   19.1950 C   0  0  0  0  0  0  0  0  0  0  0  0
    0.1980   16.5630   18.1370 C   0  0  0  0  0  0  0  0  0  0  0  0
    1.5270   16.9610   18.2830 C   0  0  0  0  0  0  0  0  0  0  0  0
    2.2260   17.6130   17.1010 C   0  0  1  0  0  0  0  0  0  0  0  0
    3.2700   18.5560   17.5210 N   0  0  0  0  0  0  0  0  0  0  0  0
    2.7340   16.5720   16.1120 C   0  0  0  0  0  0  0  0  0  0  0  0
    3.9960   19.3550   16.6670 C   0  0  0  0  0  0  0  0  0  0  0  0
    2.1860   16.6100   14.8910 N   0  0  0  0  0  0  0  0  0  0  0  0
    3.6550   19.3830   15.4840 O   0  0  0  0  0  0  0  0  0  0  0  0
    5.1410   20.1000   17.2060 C   0  0  0  0  0  0  0  0  0  0  0  0
    3.6210   15.7720   16.4020 O   0  0  0  0  0  0  0  0  0  0  0  0
    2.6020   15.7760   13.7740 C   0  0  1  0  0  0  0  0  0  0  0  0
    1.5870   14.6870   13.4560 C   0  0  0  0  0  0  0  0  0  0  0  0
    2.7360   16.5690   12.4760 C   0  0  0  0  0  0  0  0  0  0  0  0
    5.6110   19.8310   18.5070 C   0  0  0  0  0  0  0  0  0  0  0  0
    1.3480   14.7990   11.9460 C   0  0  0  0  0  0  0  0  0  0  0  0
    5.8330   21.0770   16.4490 C   0  0  0  0  0  0  0  0  0  0  0  0
    2.3810   15.6800   11.3670 N   0  0  0  0  0  0  0  0  0  0  0  0
    6.7400   20.4760   18.9920 C   0  0  0  0  0  0  0  0  0  0  0  0
    5.4050   21.4450   15.2040 O   0  0  0  0  0  0  0  0  0  0  0  0
    3.5170   15.1260   10.7180 C   0  0  0  0  0  0  0  0  0  0  0  0
    7.4360   21.3940   18.2010 C   0  0  0  0  0  0  0  0  0  0  0  0
    8.5780   21.9760   18.6690 O   0  0  0  0  0  0  0  0  0  0  0  0
    7.1630   20.1990   20.2610 O   0  0  0  0  0  0  0  0  0  0  0  0
    6.9780   21.7120   16.9300 C   0  0  0  0  0  0  0  0  0  0  0  0
    4.2760   15.9290    9.8410 C   0  0  0  0  0  0  0  0  0  0  0  0
    3.8990   13.7960   10.9620 C   0  0  0  0  0  0  0  0  0  0  0  0
    3.8820   17.3690    9.5250 C   0  0  0  0  0  0  0  0  0  0  0  0
    5.4160   15.3660    9.2610 C   0  0  0  0  0  0  0  0  0  0  0  0
    5.0390   13.2710   10.3690 C   0  0  0  0  0  0  0  0  0  0  0  0
    6.1920   16.0950    8.4080 O   0  0  0  0  0  0  0  0  0  0  0  0
    5.8060   14.0540    9.5170 C   0  0  0  0  0  0  0  0  0  0  0  0
    1.9880   15.9890   21.4860 H   0  0  0  0  0  0  0  0  0  0  0  0
   -0.3680   15.3470   21.2180 H   0  0  0  0  0  0  0  0  0  0  0  0
    3.1930   17.0000   19.6270 H   0  0  0  0  0  0  0  0  0  0  0  0
   -1.4910   15.6740   19.0750 H   0  0  0  0  0  0  0  0  0  0  0  0
   -0.3030   16.7130   17.2160 H   0  0  0  0  0  0  0  0  0  0  0  0
    1.4750   18.2060   16.5940 H   0  0  0  0  0  0  0  0  0  0  0  0
    3.4960   18.5720   18.5260 H   0  0  0  0  0  0  0  0  0  0  0  0
    1.4700   17.2960   14.7040 H   0  0  0  0  0  0  0  0  0  0  0  0
    3.5650   15.3040   13.9700 H   0  0  0  0  0  0  0  0  0  0  0  0
    2.0100   13.7120   13.7000 H   0  0  0  0  0  0  0  0  0  0  0  0
    0.6500   14.8320   13.9960 H   0  0  0  0  0  0  0  0  0  0  0  0
    2.0500   17.4060   12.4810 H   0  0  0  0  0  0  0  0  0  0  0  0
    3.7280   16.9870   12.3780 H   0  0  0  0  0  0  0  0  0  0  0  0
    5.1180   19.1290   19.1270 H   0  0  0  0  0  0  0  0  0  0  0  0
    1.2960   13.8320   11.4640 H   0  0  0  0  0  0  0  0  0  0  0  0
    0.3820   15.2550   11.7780 H   0  0  0  0  0  0  0  0  0  0  0  0
    4.5840   20.9590   14.9760 H   0  0  0  0  0  0  0  0  0  0  0  0
    8.8080   21.6030   19.5440 H   0  0  0  0  0  0  0  0  0  0  0  0
    6.6570   19.4530   20.6360 H   0  0  0  0  0  0  0  0  0  0  0  0
    7.4920   22.4240   16.3360 H   0  0  0  0  0  0  0  0  0  0  0  0
    3.3330   13.1810   11.6080 H   0  0  0  0  0  0  0  0  0  0  0  0
    2.8060   17.5180    9.6090 H   0  0  0  0  0  0  0  0  0  0  0  0
    4.3810   18.0540   10.2100 H   0  0  0  0  0  0  0  0  0  0  0  0
    4.1520   17.6410    8.5050 H   0  0  0  0  0  0  0  0  0  0  0  0
    5.3270   12.2710   10.5690 H   0  0  0  0  0  0  0  0  0  0  0  0
    5.8380   17.0010    8.3170 H   0  0  0  0  0  0  0  0  0  0  0  0
    6.6740   13.6540    9.0640 H   0  0  0  0  0  0  0  0  0  0  0  0
  1  2  2  0  0  0  0
  1  3  1  0  0  0  0
  1 36  1  0  0  0  0
  2  4  1  0  0  0  0
  2 37  1  0  0  0  0
  3  6  2  0  0  0  0
  3 38  1  0  0  0  0
  4  5  2  0  0  0  0
  4 39  1  0  0  0  0
  5  6  1  0  0  0  0
  5 40  1  0  0  0  0
  6  7  1  0  0  0  0
  7  8  1  0  0  0  0
  7  9  1  0  0  0  0
  7 41  1  0  0  0  0
  8 10  1  0  0  0  0
  8 42  1  0  0  0  0
  9 11  1  0  0  0  0
  9 14  2  0  0  0  0
 10 12  2  0  0  0  0
 10 13  1  0  0  0  0
 11 15  1  0  0  0  0
 11 43  1  0  0  0  0
 13 18  1  0  0  0  0
 13 20  2  0  0  0  0
 15 16  1  0  0  0  0
 15 17  1  0  0  0  0
 15 44  1  0  0  0  0
 16 19  1  0  0  0  0
 16 45  1  0  0  0  0
 16 46  1  0  0  0  0
 17 21  1  0  0  0  0
 17 47  1  0  0  0  0
 17 48  1  0  0  0  0
 18 22  2  0  0  0  0
 18 49  1  0  0  0  0
 19 21  1  0  0  0  0
 19 50  1  0  0  0  0
 19 51  1  0  0  0  0
 20 23  1  0  0  0  0
 20 28  1  0  0  0  0
 21 24  1  0  0  0  0
 22 25  1  0  0  0  0
 22 27  1  0  0  0  0
 23 52  1  0  0  0  0
 24 29  2  0  0  0  0
 24 30  1  0  0  0  0
 25 26  1  0  0  0  0
 25 28  2  0  0  0  0
 26 53  1  0  0  0  0
 27 54  1  0  0  0  0
 28 55  1  0  0  0  0
 29 31  1  0  0  0  0
 29 32  1  0  0  0  0
 30 33  2  0  0  0  0
 30 56  1  0  0  0  0
 31 57  1  0  0  0  0
 31 58  1  0  0  0  0
 31 59  1  0  0  0  0
 32 34  1  0  0  0  0
 32 35  2  0  0  0  0
 33 35  1  0  0  0  0
 33 60  1  0  0  0  0
 34 61  1  0  0  0  0
 35 62  1  0  0  0  0
M  END
> <rseq>
1

> <mseq>
452

> <S>
-7.569608

> <rmsd_refine>
1.781169

> <E_conf>
-17.71048

> <E_score1>
-10.15998

> <E_refine>
-44.11071

> <E_score2>
-7.569608

>  <$File>
outputs/pdb_4j58_cleaned.pdb_2024_06_17__22_47_40_V2_BS398_MIN1_/SDF/sdf_db.sdf

> <Rec_index>
1

>  <PLIF_raw>
[[14,26,26,26,26,26,26,24,29,32,35,33,30,1,3,6,5,4,2],[954,1651,1655,1659,1657,1653,1650,823,823,823,823,823,823,1519,1519,1519,1519,1519,1519],[62,112,112,112,112,112,112,54,54,54,54,54,54,102,102,102,102,102,102],[2,10,10,10,10,10,10,10,10,10,10,10,10,10,10,10,10,10,10],[1.5,1.8,1.8,1.8,1.8,1.8,1.8,0.9,0.9,0.9,0.9,0.9,0.9,0.6,0.6,0.6,0.6,0.6,0.6]]

> <FP:PLIF>
2 20 23 22 15 47

>  <PLIF_ligidx>
[[24,29,32,35,33,30],14,14,[1,3,6,5,4,2],[26,26,26,26,26,26],[26,26,26,26,26,26]]

$$$$
452
  MOE2022           3D

 64 66  0  0  1  0  0  0  0  0999 V2000
    5.4620   14.5910   10.1190 C   0  0  0  0  0  0  0  0  0  0  0  0
    5.5250   15.9080    9.6800 C   0  0  0  0  0  0  0  0  0  0  0  0
    4.5110   16.7900   10.0460 C   0  0  0  0  0  0  0  0  0  0  0  0
    4.3910   14.1650   10.9040 C   0  0  0  0  0  0  0  0  0  0  0  0
    3.3760   15.0530   11.2700 C   0  0  0  0  0  0  0  0  0  0  0  0
    4.5430   18.0830    9.6230 O   0  0  0  0  0  0  0  0  0  0  0  0
    3.4480   16.3800   10.8430 C   0  0  0  0  0  0  0  0  0  0  0  0
    2.2140   14.5680   12.1200 C   0  0  1  0  0  0  0  0  0  0  0  0
    2.5550   14.5240   13.5450 N   0  0  0  0  0  0  0  0  0  0  0  0
    1.0660   15.4300   11.9970 O   0  0  0  0  0  0  0  0  0  0  0  0
    1.4640   15.2010   14.2590 C   0  0  2  0  0  0  0  0  0  0  0  0
    0.8170   16.1140   13.2270 C   0  0  2  0  0  0  0  0  0  0  0  0
   -0.6510   16.4060   13.4720 C   0  0  0  0  0  0  0  0  0  0  0  0
   -1.4420   15.4400   13.5500 O   0  0  0  0  0  0  0  0  0  0  0  0
   -0.9700   17.6030   13.6480 O   0  5  0  0  0  0  0  0  0  0  0  0
    1.8870   15.9100   15.5340 C   0  0  0  0  0  0  0  0  0  0  0  0
    3.0060   15.8540   16.0020 O   0  0  0  0  0  0  0  0  0  0  0  0
    0.9200   16.6360   16.1400 O   0  0  0  0  0  0  0  0  0  0  0  0
    1.0250   17.1930   17.3980 C   0  0  0  0  0  0  0  0  0  0  0  0
    0.8420   16.2040   18.5310 C   0  0  0  0  0  0  0  0  0  0  0  0
    1.2140   18.5130   17.5670 C   0  0  0  0  0  0  0  0  0  0  0  0
    1.3360   19.5460   16.4610 C   0  0  0  0  0  0  0  0  0  0  0  0
    2.7750   20.0750   16.1970 C   0  0  1  0  0  0  0  0  0  0  0  0
    2.0860   15.8180   19.1570 O   0  0  0  0  0  0  0  0  0  0  0  0
    2.7050   16.7850   20.0290 C   0  0  0  0  0  0  0  0  0  0  0  0
    3.4300   20.5030   17.5410 C   0  0  0  0  0  0  0  0  0  0  0  0
    3.5760   18.9500   15.5170 C   0  0  0  0  0  0  0  0  0  0  0  0
    2.6800   21.3020   15.2550 C   0  0  0  0  0  0  0  0  0  0  0  0
    4.7350   21.3330   17.4560 C   0  0  1  0  0  0  0  0  0  0  0  0
    3.9950   22.0870   15.1030 C   0  0  0  0  0  0  0  0  0  0  0  0
    5.8080   20.4960   16.9350 O   0  0  0  0  0  0  0  0  0  0  0  0
    4.5360   22.5130   16.4750 C   0  0  0  0  0  0  0  0  0  0  0  0
    5.1440   21.7920   18.8670 C   0  0  0  0  0  0  0  0  0  0  0  0
    5.5740   20.9210   19.6610 O   0  0  0  0  0  0  0  0  0  0  0  0
    4.9860   22.9930   19.1910 O   0  5  0  0  0  0  0  0  0  0  0  0
    6.2260   13.9060    9.8530 H   0  0  0  0  0  0  0  0  0  0  0  0
    6.3290   16.2310    9.0700 H   0  0  0  0  0  0  0  0  0  0  0  0
    4.3460   13.1550   11.2190 H   0  0  0  0  0  0  0  0  0  0  0  0
    5.3500   18.2520    9.0960 H   0  0  0  0  0  0  0  0  0  0  0  0
    2.6980   17.0790   11.1080 H   0  0  0  0  0  0  0  0  0  0  0  0
    1.9060   13.5790   11.8060 H   0  0  0  0  0  0  0  0  0  0  0  0
    3.4130   15.0380   13.6820 H   0  0  0  0  0  0  0  0  0  0  0  0
    0.7380   14.4440   14.5240 H   0  0  0  0  0  0  0  0  0  0  0  0
    1.3710   17.0430   13.1820 H   0  0  0  0  0  0  0  0  0  0  0  0
    0.1940   16.6220   19.2900 H   0  0  0  0  0  0  0  0  0  0  0  0
    0.3520   15.3100   18.1710 H   0  0  0  0  0  0  0  0  0  0  0  0
    1.2860   18.9140   18.5410 H   0  0  0  0  0  0  0  0  0  0  0  0
    0.9040   19.1670   15.5440 H   0  0  0  0  0  0  0  0  0  0  0  0
    0.6940   20.3730   16.7330 H   0  0  0  0  0  0  0  0  0  0  0  0
    3.5430   16.3290   20.5540 H   0  0  0  0  0  0  0  0  0  0  0  0
    3.0770   17.6310   19.4520 H   0  0  0  0  0  0  0  0  0  0  0  0
    1.9820   17.1320   20.7650 H   0  0  0  0  0  0  0  0  0  0  0  0
    2.7060   21.1150   18.0810 H   0  0  0  0  0  0  0  0  0  0  0  0
    3.6290   19.6180   18.1480 H   0  0  0  0  0  0  0  0  0  0  0  0
    4.4900   19.3350   15.0870 H   0  0  0  0  0  0  0  0  0  0  0  0
    3.8390   18.1890   16.2500 H   0  0  0  0  0  0  0  0  0  0  0  0
    2.9960   18.5010   14.7110 H   0  0  0  0  0  0  0  0  0  0  0  0
    2.3420   20.9780   14.2690 H   0  0  0  0  0  0  0  0  0  0  0  0
    1.9320   21.9920   15.6490 H   0  0  0  0  0  0  0  0  0  0  0  0
    4.7400   21.4820   14.5860 H   0  0  0  0  0  0  0  0  0  0  0  0
    3.8090   22.9780   14.5020 H   0  0  0  0  0  0  0  0  0  0  0  0
    6.0840   19.8690   17.6260 H   0  0  0  0  0  0  0  0  0  0  0  0
    3.8240   23.2170   16.9110 H   0  0  0  0  0  0  0  0  0  0  0  0
    5.4860   23.0320   16.3420 H   0  0  0  0  0  0  0  0  0  0  0  0
  1  2  1  0  0  0  0
  1  4  2  0  0  0  0
  1 36  1  0  0  0  0
  2  3  2  0  0  0  0
  2 37  1  0  0  0  0
  3  6  1  0  0  0  0
  3  7  1  0  0  0  0
  4  5  1  0  0  0  0
  4 38  1  0  0  0  0
  5  7  2  0  0  0  0
  5  8  1  0  0  0  0
  6 39  1  0  0  0  0
  7 40  1  0  0  0  0
  8  9  1  0  0  0  0
  8 10  1  0  0  0  0
  8 41  1  0  0  0  0
  9 11  1  0  0  0  0
  9 42  1  0  0  0  0
 10 12  1  0  0  0  0
 11 12  1  0  0  0  0
 11 16  1  0  0  0  0
 11 43  1  0  0  0  0
 12 13  1  0  0  0  0
 12 44  1  0  0  0  0
 13 14  2  0  0  0  0
 13 15  1  0  0  0  0
 16 17  2  0  0  0  0
 16 18  1  0  0  0  0
 18 19  1  0  0  0  0
 19 20  1  0  0  0  0
 19 21  2  0  0  0  0
 20 24  1  0  0  0  0
 20 45  1  0  0  0  0
 20 46  1  0  0  0  0
 21 22  1  0  0  0  0
 21 47  1  0  0  0  0
 22 23  1  0  0  0  0
 22 48  1  0  0  0  0
 22 49  1  0  0  0  0
 23 26  1  0  0  0  0
 23 27  1  0  0  0  0
 23 28  1  0  0  0  0
 24 25  1  0  0  0  0
 25 50  1  0  0  0  0
 25 51  1  0  0  0  0
 25 52  1  0  0  0  0
 26 29  1  0  0  0  0
 26 53  1  0  0  0  0
 26 54  1  0  0  0  0
 27 55  1  0  0  0  0
 27 56  1  0  0  0  0
 27 57  1  0  0  0  0
 28 30  1  0  0  0  0
 28 58  1  0  0  0  0
 28 59  1  0  0  0  0
 29 31  1  0  0  0  0
 29 32  1  0  0  0  0
 29 33  1  0  0  0  0
 30 32  1  0  0  0  0
 30 60  1  0  0  0  0
 30 61  1  0  0  0  0
 31 62  1  0  0  0  0
 32 63  1  0  0  0  0
 32 64  1  0  0  0  0
 33 34  2  0  0  0  0
 33 35  1  0  0  0  0
M  CHG  1  15  -1
M  CHG  1  35  -1
M  END
> <rseq>
1

> <mseq>
453

> <S>
-6.383311

> <rmsd_refine>
1.098761

> <E_conf>
3.016946

> <E_score1>
-11.21937

> <E_refine>
-39.33998

> <E_score2>
-6.383311

>  <$File>
outputs/pdb_4j58_cleaned.pdb_2024_06_17__22_47_40_V2_BS398_MIN1_/SDF/sdf_db.sdf

> <Rec_index>
1

>  <PLIF_raw>
[[6,34,35],[2222,1872,1872],[148,125,125],[3,7,7],[1.9,0.862104815,4.317240697]]

> <FP:PLIF>
13 31 39 40

>  <PLIF_ligidx>
[[34,35],35,6,6]

$$$$
453
  MOE2022           3D

 62 66  0  0  1  0  0  0  0  0999 V2000
    6.5060   20.1080   19.2500 C   0  0  0  0  0  0  0  0  0  0  0  0
    7.5530   20.9210   18.8950 C   0  0  0  0  0  0  0  0  0  0  0  0
    5.4500   19.8660   18.3450 C   0  0  0  0  0  0  0  0  0  0  0  0
    4.3700   19.0200   18.6770 C   0  0  0  0  0  0  0  0  0  0  0  0
    3.3810   18.7510   17.7570 C   0  0  0  0  0  0  0  0  0  0  0  0
    7.5800   21.5440   17.6350 C   0  0  0  0  0  0  0  0  0  0  0  0
    8.7410   22.4530   17.3100 C   0  0  0  0  0  0  0  0  0  0  0  0
    6.5440   21.3480   16.7250 C   0  0  0  0  0  0  0  0  0  0  0  0
    3.4960   19.3890   16.4750 C   0  0  0  0  0  0  0  0  0  0  0  0
    6.5280   22.0440   15.4410 C   0  0  0  0  0  0  0  0  0  0  0  0
    2.2860   17.8370   18.1160 C   0  0  0  0  0  0  0  0  0  0  0  0
    7.3510   21.7120   14.5400 O   0  0  0  0  0  0  0  0  0  0  0  0
    5.7010   22.9720   15.2490 O   0  5  0  0  0  0  0  0  0  0  0  0
    2.4590   17.0240   19.0660 O   0  5  0  0  0  0  0  0  0  0  0  0
    1.1850   17.8510   17.4970 O   0  0  0  0  0  0  0  0  0  0  0  0
    2.5460   19.1530   15.4960 N   0  0  0  0  0  0  0  0  0  0  0  0
    5.4760   20.4680   17.0660 C   0  0  0  0  0  0  0  0  0  0  0  0
    2.2880   20.0850   14.3930 C   0  0  0  0  0  0  0  0  0  0  0  0
    4.4900   20.1930   16.1630 N   0  0  0  0  0  0  0  0  0  0  0  0
    1.8890   19.3740   13.0960 C   0  0  1  0  0  0  0  0  0  0  0  0
    2.9930   18.4030   12.6400 C   0  0  0  0  0  0  0  0  0  0  0  0
    0.6300   18.5040   13.2460 C   0  0  0  0  0  0  0  0  0  0  0  0
    1.1370   17.0660   13.2880 C   0  0  0  0  0  0  0  0  0  0  0  0
    2.4360   17.0150   12.5590 N   0  3  1  0  0  0  0  0  0  0  0  0
    2.2910   16.5220   11.1550 C   0  0  0  0  0  0  0  0  0  0  0  0
    3.5710   16.0210   10.5300 C   0  0  0  0  0  0  0  0  0  0  0  0
    3.9920   14.7470   10.5550 C   0  0  0  0  0  0  0  0  0  0  0  0
    3.2910   13.5860   11.0830 C   0  0  0  0  0  0  0  0  0  0  0  0
    2.4160   13.6220   11.9400 O   0  0  0  0  0  0  0  0  0  0  0  0
    3.5970   12.3690   10.5150 N   0  0  0  0  0  0  0  0  0  0  0  0
    5.3160   14.5680    9.8680 C   0  0  1  0  0  0  0  0  0  0  0  0
    4.5540   12.2320    9.4710 C   0  0  0  0  0  0  0  0  0  0  0  0
    5.3580   13.2560    9.1190 C   0  0  0  0  0  0  0  0  0  0  0  0
    4.5110   16.8840    9.7300 C   0  0  0  0  0  0  0  0  0  0  0  0
    5.4490   15.8630    9.0450 C   0  0  0  0  0  0  0  0  0  0  0  0
    6.4910   19.6540   20.2050 H   0  0  0  0  0  0  0  0  0  0  0  0
    8.3460   21.0880   19.5780 H   0  0  0  0  0  0  0  0  0  0  0  0
    4.3320   18.5890   19.6430 H   0  0  0  0  0  0  0  0  0  0  0  0
    9.1960   22.1770   16.3590 H   0  0  0  0  0  0  0  0  0  0  0  0
    8.3900   23.4810   17.2460 H   0  0  0  0  0  0  0  0  0  0  0  0
    9.5120   22.3950   18.0770 H   0  0  0  0  0  0  0  0  0  0  0  0
    1.7160   18.6330   15.8310 H   0  0  0  0  0  0  0  0  0  0  0  0
    1.4850   20.7630   14.6860 H   0  0  0  0  0  0  0  0  0  0  0  0
    3.1660   20.6940   14.1760 H   0  0  0  0  0  0  0  0  0  0  0  0
    1.7380   20.1170   12.3130 H   0  0  0  0  0  0  0  0  0  0  0  0
    3.4060   18.7410   11.6990 H   0  0  0  0  0  0  0  0  0  0  0  0
    3.8200   18.4620   13.3360 H   0  0  0  0  0  0  0  0  0  0  0  0
    0.0550   18.7490   14.1410 H   0  0  0  0  0  0  0  0  0  0  0  0
    0.0030   18.6260   12.3620 H   0  0  0  0  0  0  0  0  0  0  0  0
    1.2660   16.7850   14.3260 H   0  0  0  0  0  0  0  0  0  0  0  0
    0.3920   16.3820   12.9030 H   0  0  0  0  0  0  0  0  0  0  0  0
    3.0450   16.3770   13.0520 H   0  0  0  0  0  0  0  0  0  0  0  0
    1.5680   15.7170   11.1090 H   0  0  0  0  0  0  0  0  0  0  0  0
    1.8610   17.2790   10.5120 H   0  0  0  0  0  0  0  0  0  0  0  0
    3.0620   11.5470   10.8330 H   0  0  0  0  0  0  0  0  0  0  0  0
    6.0850   14.5560   10.6280 H   0  0  0  0  0  0  0  0  0  0  0  0
    4.5710   11.2740    9.0160 H   0  0  0  0  0  0  0  0  0  0  0  0
    6.0760   13.1570    8.3470 H   0  0  0  0  0  0  0  0  0  0  0  0
    3.9890   17.4870    8.9990 H   0  0  0  0  0  0  0  0  0  0  0  0
    5.0570   17.5490   10.3820 H   0  0  0  0  0  0  0  0  0  0  0  0
    6.4810   16.2090    9.0060 H   0  0  0  0  0  0  0  0  0  0  0  0
    5.0850   15.6780    8.0330 H   0  0  0  0  0  0  0  0  0  0  0  0
  1  2  1  0  0  0  0
  1  3  2  0  0  0  0
  1 36  1  0  0  0  0
  2  6  2  0  0  0  0
  2 37  1  0  0  0  0
  3  4  1  0  0  0  0
  3 17  1  0  0  0  0
  4  5  2  0  0  0  0
  4 38  1  0  0  0  0
  5  9  1  0  0  0  0
  5 11  1  0  0  0  0
  6  7  1  0  0  0  0
  6  8  1  0  0  0  0
  7 39  1  0  0  0  0
  7 40  1  0  0  0  0
  7 41  1  0  0  0  0
  8 10  1  0  0  0  0
  8 17  2  0  0  0  0
  9 16  1  0  0  0  0
  9 19  2  0  0  0  0
 10 12  2  0  0  0  0
 10 13  1  0  0  0  0
 11 14  1  0  0  0  0
 11 15  2  0  0  0  0
 16 18  1  0  0  0  0
 16 42  1  0  0  0  0
 17 19  1  0  0  0  0
 18 20  1  0  0  0  0
 18 43  1  0  0  0  0
 18 44  1  0  0  0  0
 20 21  1  0  0  0  0
 20 22  1  0  0  0  0
 20 45  1  0  0  0  0
 21 24  1  0  0  0  0
 21 46  1  0  0  0  0
 21 47  1  0  0  0  0
 22 23  1  0  0  0  0
 22 48  1  0  0  0  0
 22 49  1  0  0  0  0
 23 24  1  0  0  0  0
 23 50  1  0  0  0  0
 23 51  1  0  0  0  0
 24 25  1  0  0  0  0
 24 52  1  0  0  0  0
 25 26  1  0  0  0  0
 25 53  1  0  0  0  0
 25 54  1  0  0  0  0
 26 27  2  0  0  0  0
 26 34  1  0  0  0  0
 27 28  1  0  0  0  0
 27 31  1  0  0  0  0
 28 29  2  0  0  0  0
 28 30  1  0  0  0  0
 30 32  1  0  0  0  0
 30 55  1  0  0  0  0
 31 33  1  0  0  0  0
 31 35  1  0  0  0  0
 31 56  1  0  0  0  0
 32 33  2  0  0  0  0
 32 57  1  0  0  0  0
 33 58  1  0  0  0  0
 34 35  1  0  0  0  0
 34 59  1  0  0  0  0
 34 60  1  0  0  0  0
 35 61  1  0  0  0  0
 35 62  1  0  0  0  0
M  CHG  1  13  -1
M  CHG  1  14  -1
M  CHG  1  24   1
M  END
> <rseq>
1

> <mseq>
454

> <S>
-6.600882

> <rmsd_refine>
1.108083

> <E_conf>
-238.0065

> <E_score1>
-11.37556

> <E_refine>
-38.23886

> <E_score2>
-6.600882

>  <$File>
outputs/pdb_4j58_cleaned.pdb_2024_06_17__22_47_40_V2_BS398_MIN1_/SDF/sdf_db.sdf

> <Rec_index>
1

>  <PLIF_raw>
[[12,12,12,2,2,2,2,2,2],[826,826,829,1651,1655,1659,1657,1653,1650],[54,54,54,112,112,112,112,112,112],[2,7,7,10,10,10,10,10,10],[4.9,5.390091984,1.969906128,0.5,0.5,0.5,0.5,0.5,0.5]]

> <FP:PLIF>
6 19 1 16 15

>  <PLIF_ligidx>
[12,12,[12,12],12,[2,2,2,2,2,2]]

$$$$
454
  MOE2022           3D

 63 66  0  0  1  0  0  0  0  0999 V2000
    7.1710   21.0160   19.4200 C   0  0  0  0  0  0  0  0  0  0  0  0
    6.3430   19.9560   19.0700 C   0  0  0  0  0  0  0  0  0  0  0  0
    5.0650   20.2140   18.5790 C   0  0  0  0  0  0  0  0  0  0  0  0
    4.2980   19.1300   18.1840 O   0  0  0  0  0  0  0  0  0  0  0  0
    3.1790   19.1790   17.2340 C   0  0  1  0  0  0  0  0  0  0  0  0
    4.5970   21.5280   18.4720 C   0  0  0  0  0  0  0  0  0  0  0  0
    6.7200   22.3270   19.2950 C   0  0  0  0  0  0  0  0  0  0  0  0
    5.4330   22.5810   18.8260 C   0  0  0  0  0  0  0  0  0  0  0  0
    3.6600   19.4820   15.8100 C   0  0  0  0  0  0  0  0  0  0  0  0
    4.4730   20.3880   15.6300 O   0  0  0  0  0  0  0  0  0  0  0  0
    2.3300   17.9010   17.3710 C   0  0  2  0  0  0  0  0  0  0  0  0
    3.1220   18.8290   14.7520 N   0  0  0  0  0  0  0  0  0  0  0  0
    1.3400   17.7340   16.1970 C   0  0  2  0  0  0  0  0  0  0  0  0
    2.2120   17.6640   14.9120 C   0  0  1  0  0  0  0  0  0  0  0  0
    1.6530   17.9270   18.6180 O   0  0  0  0  0  0  0  0  0  0  0  0
    3.3640   19.3260   13.3750 C   0  0  0  0  0  0  0  0  0  0  0  0
    0.4040   18.8850   16.1200 N   0  0  0  0  0  0  0  0  0  0  0  0
    0.5560   16.4140   16.3910 C   0  0  0  0  0  0  0  0  0  0  0  0
   -0.5190   16.2640   15.4850 O   0  0  0  0  0  0  0  0  0  0  0  0
    1.4000   17.5050   13.7040 O   0  0  0  0  0  0  0  0  0  0  0  0
    1.4560   16.2630   12.9050 C   0  0  2  0  0  0  0  0  0  0  0  0
    2.8830   15.6580   12.7710 C   0  0  0  0  0  0  0  0  0  0  0  0
    0.8670   16.5520   11.5470 C   0  0  0  0  0  0  0  0  0  0  0  0
    0.0370   15.8340   10.9910 O   0  0  0  0  0  0  0  0  0  0  0  0
    3.2400   15.0390   11.3930 C   0  0  2  0  0  0  0  0  0  0  0  0
    1.6030   17.4110   10.8340 O   0  0  0  0  0  0  0  0  0  0  0  0
    2.3950   16.8810    9.7570 C   0  0  1  0  0  0  0  0  0  0  0  0
    4.3480   14.1900   11.6020 O   0  0  0  0  0  0  0  0  0  0  0  0
    2.8460   18.0330    8.8480 C   0  0  0  0  0  0  0  0  0  0  0  0
    3.8620   17.6310    7.8000 C   0  0  0  0  0  0  0  0  0  0  0  0
    3.6070   16.0900   10.3020 C   0  0  2  0  0  0  0  0  0  0  0  0
    4.0140   18.3480    6.8350 O   0  0  0  0  0  0  0  0  0  0  0  0
    4.6670   16.4320    7.9820 C   0  0  0  0  0  0  0  0  0  0  0  0
    5.5880   16.1740    7.2390 O   0  0  0  0  0  0  0  0  0  0  0  0
    4.3520   15.4590    9.1000 C   0  0  0  0  0  0  0  0  0  0  0  0
    8.1510   20.8280   19.7740 H   0  0  0  0  0  0  0  0  0  0  0  0
    6.6890   18.9610   19.1620 H   0  0  0  0  0  0  0  0  0  0  0  0
    2.5400   19.9980   17.5320 H   0  0  0  0  0  0  0  0  0  0  0  0
    3.6210   21.7330   18.1180 H   0  0  0  0  0  0  0  0  0  0  0  0
    7.3560   23.1310   19.5560 H   0  0  0  0  0  0  0  0  0  0  0  0
    5.0920   23.5800   18.7350 H   0  0  0  0  0  0  0  0  0  0  0  0
    3.0130   17.0510   17.3720 H   0  0  0  0  0  0  0  0  0  0  0  0
    2.8300   16.7820   15.0050 H   0  0  0  0  0  0  0  0  0  0  0  0
    2.2610   18.2460   19.2920 H   0  0  0  0  0  0  0  0  0  0  0  0
    4.1180   20.0980   13.3190 H   0  0  0  0  0  0  0  0  0  0  0  0
    3.6860   18.5400   12.7110 H   0  0  0  0  0  0  0  0  0  0  0  0
    2.4610   19.7490   12.9550 H   0  0  0  0  0  0  0  0  0  0  0  0
    0.9150   19.7380   15.9460 H   0  0  0  0  0  0  0  0  0  0  0  0
   -0.1050   18.9630   16.9900 H   0  0  0  0  0  0  0  0  0  0  0  0
    1.2380   15.5770   16.2670 H   0  0  0  0  0  0  0  0  0  0  0  0
    0.1400   16.3750   17.3980 H   0  0  0  0  0  0  0  0  0  0  0  0
   -1.0180   17.0860   15.4770 H   0  0  0  0  0  0  0  0  0  0  0  0
    0.8210   15.5360   13.3930 H   0  0  0  0  0  0  0  0  0  0  0  0
    3.6250   16.4200   12.9870 H   0  0  0  0  0  0  0  0  0  0  0  0
    2.9730   14.8880   13.5390 H   0  0  0  0  0  0  0  0  0  0  0  0
    2.4140   14.4180   11.0410 H   0  0  0  0  0  0  0  0  0  0  0  0
    1.7610   16.2140    9.1690 H   0  0  0  0  0  0  0  0  0  0  0  0
    4.1000   13.4770   12.2010 H   0  0  0  0  0  0  0  0  0  0  0  0
    1.9830   18.4840    8.3760 H   0  0  0  0  0  0  0  0  0  0  0  0
    3.2810   18.8120    9.4600 H   0  0  0  0  0  0  0  0  0  0  0  0
    4.3030   16.8030   10.7470 H   0  0  0  0  0  0  0  0  0  0  0  0
    5.2770   14.9990    9.4190 H   0  0  0  0  0  0  0  0  0  0  0  0
    3.7520   14.6550    8.6940 H   0  0  0  0  0  0  0  0  0  0  0  0
  1  2  1  0  0  0  0
  1  7  2  0  0  0  0
  1 36  1  0  0  0  0
  2  3  2  0  0  0  0
  2 37  1  0  0  0  0
  3  4  1  0  0  0  0
  3  6  1  0  0  0  0
  4  5  1  0  0  0  0
  5  9  1  0  0  0  0
  5 11  1  0  0  0  0
  5 38  1  0  0  0  0
  6  8  2  0  0  0  0
  6 39  1  0  0  0  0
  7  8  1  0  0  0  0
  7 40  1  0  0  0  0
  8 41  1  0  0  0  0
  9 10  2  0  0  0  0
  9 12  1  0  0  0  0
 11 13  1  0  0  0  0
 11 15  1  0  0  0  0
 11 42  1  0  0  0  0
 12 14  1  0  0  0  0
 12 16  1  0  0  0  0
 13 14  1  0  0  0  0
 13 17  1  0  0  0  0
 13 18  1  0  0  0  0
 14 20  1  0  0  0  0
 14 43  1  0  0  0  0
 15 44  1  0  0  0  0
 16 45  1  0  0  0  0
 16 46  1  0  0  0  0
 16 47  1  0  0  0  0
 17 48  1  0  0  0  0
 17 49  1  0  0  0  0
 18 19  1  0  0  0  0
 18 50  1  0  0  0  0
 18 51  1  0  0  0  0
 19 52  1  0  0  0  0
 20 21  1  0  0  0  0
 21 22  1  0  0  0  0
 21 23  1  0  0  0  0
 21 53  1  0  0  0  0
 22 25  1  0  0  0  0
 22 54  1  0  0  0  0
 22 55  1  0  0  0  0
 23 24  2  0  0  0  0
 23 26  1  0  0  0  0
 25 28  1  0  0  0  0
 25 31  1  0  0  0  0
 25 56  1  0  0  0  0
 26 27  1  0  0  0  0
 27 29  1  0  0  0  0
 27 31  1  0  0  0  0
 27 57  1  0  0  0  0
 28 58  1  0  0  0  0
 29 30  1  0  0  0  0
 29 59  1  0  0  0  0
 29 60  1  0  0  0  0
 30 32  2  0  0  0  0
 30 33  1  0  0  0  0
 31 35  1  0  0  0  0
 31 61  1  0  0  0  0
 33 34  2  0  0  0  0
 33 35  1  0  0  0  0
 35 62  1  0  0  0  0
 35 63  1  0  0  0  0
M  END
> <rseq>
1

> <mseq>
455

> <S>
-6.014806

> <rmsd_refine>
1.633138

> <E_conf>
138.9573

> <E_score1>
-11.45451

> <E_refine>
-33.45711

> <E_score2>
-6.014806

>  <$File>
outputs/pdb_4j58_cleaned.pdb_2024_06_17__22_47_40_V2_BS398_MIN1_/SDF/sdf_db.sdf

> <Rec_index>
1

>  <PLIF_raw>
[28,1056,70,3,1.9]

> <FP:PLIF>
3 4

>  <PLIF_ligidx>
[28,28]

$$$$
455
  MOE2022           3D

 57 61  0  0  1  0  0  0  0  0999 V2000
    3.4790   17.5260   19.5280 O   0  0  0  0  0  0  0  0  0  0  0  0
    2.4690   17.1340   18.9330 C   0  0  0  0  0  0  0  0  0  0  0  0
    1.3950   16.4090   19.5590 C   0  0  0  0  0  0  0  0  0  0  0  0
    2.3530   17.3890   17.5630 N   0  0  0  0  0  0  0  0  0  0  0  0
    0.3450   15.9860   18.7980 C   0  0  0  0  0  0  0  0  0  0  0  0
    1.3210   16.7770   16.8300 C   0  0  0  0  0  0  0  0  0  0  0  0
    0.3460   16.1670   17.4360 N   0  0  0  0  0  0  0  0  0  0  0  0
    1.4200   16.7760   15.3810 C   0  0  0  0  0  0  0  0  0  0  0  0
    3.3280   18.2990   16.8760 C   0  0  0  0  0  0  0  0  0  0  0  0
    1.4650   16.1170   21.0490 C   0  0  0  0  0  0  0  0  0  0  0  0
   -0.8460   15.2330   19.3560 C   0  0  0  0  0  0  0  0  0  0  0  0
    3.3720   19.7590   17.3810 C   0  0  1  0  0  0  0  0  0  0  0  0
    4.6330   20.0850   18.2110 C   0  0  0  0  0  0  0  0  0  0  0  0
    0.6710   17.6540   14.5860 C   0  0  0  0  0  0  0  0  0  0  0  0
    3.4560   20.7910   16.2600 C   0  0  0  0  0  0  0  0  0  0  0  0
    0.8330   17.6630   13.2040 C   0  0  0  0  0  0  0  0  0  0  0  0
    1.7410   16.7900   12.6020 C   0  0  0  0  0  0  0  0  0  0  0  0
    2.8760   20.7000   15.1800 O   0  0  0  0  0  0  0  0  0  0  0  0
    2.3050   15.8820   14.7700 C   0  0  0  0  0  0  0  0  0  0  0  0
    4.7880   21.5920   17.9630 C   0  0  1  0  0  0  0  0  0  0  0  0
    2.4530   15.8690   13.3910 C   0  0  0  0  0  0  0  0  0  0  0  0
    6.2230   22.0960   18.1840 C   0  0  0  0  0  0  0  0  0  0  0  0
    6.4330   22.7380   19.2380 O   0  0  0  0  0  0  0  0  0  0  0  0
    7.0810   21.8310   17.3100 O   0  5  0  0  0  0  0  0  0  0  0  0
    4.2990   21.7550   16.6040 N   0  0  0  0  0  0  0  0  0  0  0  0
    1.8910   16.9310   11.2320 O   0  0  0  0  0  0  0  0  0  0  0  0
    3.0150   16.6690   10.4630 C   0  0  0  0  0  0  0  0  0  0  0  0
    3.4240   17.6320    9.5390 C   0  0  0  0  0  0  0  0  0  0  0  0
    2.7350   18.8090    9.4130 O   0  0  0  0  0  0  0  0  0  0  0  0
    4.5390   17.4120    8.7370 C   0  0  0  0  0  0  0  0  0  0  0  0
    3.7150   15.4710   10.5850 C   0  0  0  0  0  0  0  0  0  0  0  0
    5.2530   16.2240    8.8710 C   0  0  0  0  0  0  0  0  0  0  0  0
    3.2460   14.4210   11.5530 C   0  0  0  0  0  0  0  0  0  0  0  0
    4.8440   15.2590    9.7910 C   0  0  0  0  0  0  0  0  0  0  0  0
    3.2980   14.9040   12.8960 O   0  0  0  0  0  0  0  0  0  0  0  0
    4.3180   17.8830   16.9080 H   0  0  0  0  0  0  0  0  0  0  0  0
    3.1470   18.3380   15.8140 H   0  0  0  0  0  0  0  0  0  0  0  0
    0.7030   16.6630   21.5870 H   0  0  0  0  0  0  0  0  0  0  0  0
    1.3220   15.0640   21.2410 H   0  0  0  0  0  0  0  0  0  0  0  0
    2.4210   16.3750   21.4810 H   0  0  0  0  0  0  0  0  0  0  0  0
   -1.1040   15.5480   20.3570 H   0  0  0  0  0  0  0  0  0  0  0  0
   -1.7260   15.3850   18.7460 H   0  0  0  0  0  0  0  0  0  0  0  0
   -0.6530   14.1700   19.3760 H   0  0  0  0  0  0  0  0  0  0  0  0
    2.4730   19.9680   17.9620 H   0  0  0  0  0  0  0  0  0  0  0  0
    4.5140   19.8680   19.2710 H   0  0  0  0  0  0  0  0  0  0  0  0
    5.5010   19.5610   17.8080 H   0  0  0  0  0  0  0  0  0  0  0  0
   -0.0130   18.3230   15.0420 H   0  0  0  0  0  0  0  0  0  0  0  0
    0.2770   18.3420   12.6110 H   0  0  0  0  0  0  0  0  0  0  0  0
    2.8640   15.2070   15.3640 H   0  0  0  0  0  0  0  0  0  0  0  0
    4.1190   22.1300   18.6360 H   0  0  0  0  0  0  0  0  0  0  0  0
    4.5650   22.5270   16.0110 H   0  0  0  0  0  0  0  0  0  0  0  0
    1.9790   18.8220   10.0320 H   0  0  0  0  0  0  0  0  0  0  0  0
    4.8420   18.1450    8.0350 H   0  0  0  0  0  0  0  0  0  0  0  0
    6.1080   16.0530    8.2700 H   0  0  0  0  0  0  0  0  0  0  0  0
    2.2340   14.1140   11.3260 H   0  0  0  0  0  0  0  0  0  0  0  0
    3.8610   13.5350   11.4820 H   0  0  0  0  0  0  0  0  0  0  0  0
    5.3930   14.3570    9.8790 H   0  0  0  0  0  0  0  0  0  0  0  0
  1  2  2  0  0  0  0
  2  3  1  0  0  0  0
  2  4  1  0  0  0  0
  3  5  2  0  0  0  0
  3 10  1  0  0  0  0
  4  6  1  0  0  0  0
  4  9  1  0  0  0  0
  5  7  1  0  0  0  0
  5 11  1  0  0  0  0
  6  7  2  0  0  0  0
  6  8  1  0  0  0  0
  8 14  1  0  0  0  0
  8 19  2  0  0  0  0
  9 12  1  0  0  0  0
  9 36  1  0  0  0  0
  9 37  1  0  0  0  0
 10 38  1  0  0  0  0
 10 39  1  0  0  0  0
 10 40  1  0  0  0  0
 11 41  1  0  0  0  0
 11 42  1  0  0  0  0
 11 43  1  0  0  0  0
 12 13  1  0  0  0  0
 12 15  1  0  0  0  0
 12 44  1  0  0  0  0
 13 20  1  0  0  0  0
 13 45  1  0  0  0  0
 13 46  1  0  0  0  0
 14 16  2  0  0  0  0
 14 47  1  0  0  0  0
 15 18  2  0  0  0  0
 15 25  1  0  0  0  0
 16 17  1  0  0  0  0
 16 48  1  0  0  0  0
 17 21  2  0  0  0  0
 17 26  1  0  0  0  0
 19 21  1  0  0  0  0
 19 49  1  0  0  0  0
 20 22  1  0  0  0  0
 20 25  1  0  0  0  0
 20 50  1  0  0  0  0
 21 35  1  0  0  0  0
 22 23  2  0  0  0  0
 22 24  1  0  0  0  0
 25 51  1  0  0  0  0
 26 27  1  0  0  0  0
 27 28  1  0  0  0  0
 27 31  2  0  0  0  0
 28 29  1  0  0  0  0
 28 30  2  0  0  0  0
 29 52  1  0  0  0  0
 30 32  1  0  0  0  0
 30 53  1  0  0  0  0
 31 33  1  0  0  0  0
 31 34  1  0  0  0  0
 32 34  2  0  0  0  0
 32 54  1  0  0  0  0
 33 35  1  0  0  0  0
 33 55  1  0  0  0  0
 33 56  1  0  0  0  0
 34 57  1  0  0  0  0
M  CHG  1  24  -1
M  END
> <rseq>
1

> <mseq>
456

> <S>
-6.443691

> <rmsd_refine>
0.8822129

> <E_conf>
-52.44577

> <E_score1>
-10.6006

> <E_refine>
-33.86858

> <E_score2>
-6.443691

>  <$File>
outputs/pdb_4j58_cleaned.pdb_2024_06_17__22_47_40_V2_BS398_MIN1_/SDF/sdf_db.sdf

> <Rec_index>
1

>  <PLIF_raw>
[[23,27,28,30,32,34,31,2,4,6,7,5,3],[1872,823,823,823,823,823,823,954,954,954,954,954,954],[125,54,54,54,54,54,54,62,62,62,62,62,62],[7,10,10,10,10,10,10,10,10,10,10,10,10],[3.501383005,1.5,1.5,1.5,1.5,1.5,1.5,1.4,1.4,1.4,1.4,1.4,1.4]]

> <FP:PLIF>
2 5 21 30 13 31

>  <PLIF_ligidx>
[[27,28,30,32,34,31],[27,28,30,32,34,31],[2,4,6,7,5,3],[2,4,6,7,5,3],23,23]

$$$$
456
  MOE2022           3D

 60 63  0  0  1  0  0  0  0  0999 V2000
    2.5020   16.2860   20.8360 C   0  0  0  0  0  0  0  0  0  0  0  0
    1.2160   15.8570   21.1250 C   0  0  0  0  0  0  0  0  0  0  0  0
    2.7830   16.8590   19.6040 C   0  0  0  0  0  0  0  0  0  0  0  0
    0.2120   15.9780   20.1700 C   0  0  0  0  0  0  0  0  0  0  0  0
    0.4980   16.5400   18.9290 C   0  0  0  0  0  0  0  0  0  0  0  0
    1.7840   16.9950   18.6380 C   0  0  0  0  0  0  0  0  0  0  0  0
    2.0740   17.6180   17.2790 C   0  0  1  0  0  0  0  0  0  0  0  0
    3.1340   18.6210   17.3480 N   0  0  0  0  0  0  0  0  0  0  0  0
    2.4430   16.5840   16.2330 C   0  0  0  0  0  0  0  0  0  0  0  0
    2.9480   19.9390   17.6630 C   0  0  0  0  0  0  0  0  0  0  0  0
    1.6820   16.5750   15.1320 N   0  0  0  0  0  0  0  0  0  0  0  0
    1.8330   20.4270   17.4890 O   0  0  0  0  0  0  0  0  0  0  0  0
    4.1080   20.6640   18.1860 C   0  0  0  0  0  0  0  0  0  0  0  0
    3.4580   15.8930   16.3340 O   0  0  0  0  0  0  0  0  0  0  0  0
    2.0750   15.9190   13.8970 C   0  0  1  0  0  0  0  0  0  0  0  0
    1.5380   14.5040   13.7720 C   0  0  0  0  0  0  0  0  0  0  0  0
    1.5430   16.6190   12.6500 C   0  0  0  0  0  0  0  0  0  0  0  0
    5.1950   19.9500   18.7280 C   0  0  0  0  0  0  0  0  0  0  0  0
    1.0570   14.3990   12.3200 C   0  0  0  0  0  0  0  0  0  0  0  0
    4.1840   22.0740   18.1820 C   0  0  0  0  0  0  0  0  0  0  0  0
    1.4990   15.6060   11.5940 N   0  0  0  0  0  0  0  0  0  0  0  0
    6.3090   20.6170   19.2100 C   0  0  0  0  0  0  0  0  0  0  0  0
    3.1570   22.8340   17.7030 O   0  0  0  0  0  0  0  0  0  0  0  0
    2.7140   15.5790   10.8600 C   0  0  0  0  0  0  0  0  0  0  0  0
    6.3630   22.0130   19.1780 C   0  0  0  0  0  0  0  0  0  0  0  0
    7.4450   22.6750   19.6580 O   0  0  0  0  0  0  0  0  0  0  0  0
    7.3460   19.8690   19.7160 O   0  0  0  0  0  0  0  0  0  0  0  0
    5.3030   22.7500   18.6650 C   0  0  0  0  0  0  0  0  0  0  0  0
    2.9840   16.6730   10.0280 C   0  0  0  0  0  0  0  0  0  0  0  0
    3.6470   14.5290   10.9700 C   0  0  0  0  0  0  0  0  0  0  0  0
    4.1830   16.7170    9.3320 C   0  0  0  0  0  0  0  0  0  0  0  0
    4.4560   17.7960    8.5340 O   0  0  0  0  0  0  0  0  0  0  0  0
    5.1070   15.6770    9.4430 C   0  0  0  0  0  0  0  0  0  0  0  0
    6.2810   15.7240    8.7440 O   0  0  0  0  0  0  0  0  0  0  0  0
    4.8430   14.5830   10.2610 C   0  0  0  0  0  0  0  0  0  0  0  0
    3.2690   16.1770   21.5560 H   0  0  0  0  0  0  0  0  0  0  0  0
    1.0140   15.4440   22.0730 H   0  0  0  0  0  0  0  0  0  0  0  0
    3.7650   17.1930   19.4120 H   0  0  0  0  0  0  0  0  0  0  0  0
   -0.7710   15.6470   20.3870 H   0  0  0  0  0  0  0  0  0  0  0  0
   -0.2720   16.6260   18.2050 H   0  0  0  0  0  0  0  0  0  0  0  0
    1.1670   18.1100   16.9540 H   0  0  0  0  0  0  0  0  0  0  0  0
    4.0830   18.2390   17.4620 H   0  0  0  0  0  0  0  0  0  0  0  0
    0.8650   17.1660   15.0980 H   0  0  0  0  0  0  0  0  0  0  0  0
    3.1630   15.8920   13.8060 H   0  0  0  0  0  0  0  0  0  0  0  0
    2.3380   13.7880   13.9570 H   0  0  0  0  0  0  0  0  0  0  0  0
    0.7070   14.3330   14.4560 H   0  0  0  0  0  0  0  0  0  0  0  0
    0.5410   16.9860   12.8290 H   0  0  0  0  0  0  0  0  0  0  0  0
    2.1500   17.4780   12.3950 H   0  0  0  0  0  0  0  0  0  0  0  0
    5.1770   18.8950   18.7820 H   0  0  0  0  0  0  0  0  0  0  0  0
    1.3690   13.4790   11.8450 H   0  0  0  0  0  0  0  0  0  0  0  0
   -0.0240   14.3730   12.3090 H   0  0  0  0  0  0  0  0  0  0  0  0
    2.3970   22.2610   17.4680 H   0  0  0  0  0  0  0  0  0  0  0  0
    8.1520   22.0640   19.9410 H   0  0  0  0  0  0  0  0  0  0  0  0
    8.1080   20.4200   19.9760 H   0  0  0  0  0  0  0  0  0  0  0  0
    5.3430   23.8080   18.6410 H   0  0  0  0  0  0  0  0  0  0  0  0
    2.2810   17.4610    9.9330 H   0  0  0  0  0  0  0  0  0  0  0  0
    3.4630   13.7000   11.5990 H   0  0  0  0  0  0  0  0  0  0  0  0
    5.3470   17.6900    8.1460 H   0  0  0  0  0  0  0  0  0  0  0  0
    6.7870   14.8980    8.8740 H   0  0  0  0  0  0  0  0  0  0  0  0
    5.5460   13.7950   10.3460 H   0  0  0  0  0  0  0  0  0  0  0  0
  1  2  2  0  0  0  0
  1  3  1  0  0  0  0
  1 36  1  0  0  0  0
  2  4  1  0  0  0  0
  2 37  1  0  0  0  0
  3  6  2  0  0  0  0
  3 38  1  0  0  0  0
  4  5  2  0  0  0  0
  4 39  1  0  0  0  0
  5  6  1  0  0  0  0
  5 40  1  0  0  0  0
  6  7  1  0  0  0  0
  7  8  1  0  0  0  0
  7  9  1  0  0  0  0
  7 41  1  0  0  0  0
  8 10  1  0  0  0  0
  8 42  1  0  0  0  0
  9 11  1  0  0  0  0
  9 14  2  0  0  0  0
 10 12  2  0  0  0  0
 10 13  1  0  0  0  0
 11 15  1  0  0  0  0
 11 43  1  0  0  0  0
 13 18  1  0  0  0  0
 13 20  2  0  0  0  0
 15 16  1  0  0  0  0
 15 17  1  0  0  0  0
 15 44  1  0  0  0  0
 16 19  1  0  0  0  0
 16 45  1  0  0  0  0
 16 46  1  0  0  0  0
 17 21  1  0  0  0  0
 17 47  1  0  0  0  0
 17 48  1  0  0  0  0
 18 22  2  0  0  0  0
 18 49  1  0  0  0  0
 19 21  1  0  0  0  0
 19 50  1  0  0  0  0
 19 51  1  0  0  0  0
 20 23  1  0  0  0  0
 20 28  1  0  0  0  0
 21 24  1  0  0  0  0
 22 25  1  0  0  0  0
 22 27  1  0  0  0  0
 23 52  1  0  0  0  0
 24 29  1  0  0  0  0
 24 30  2  0  0  0  0
 25 26  1  0  0  0  0
 25 28  2  0  0  0  0
 26 53  1  0  0  0  0
 27 54  1  0  0  0  0
 28 55  1  0  0  0  0
 29 31  2  0  0  0  0
 29 56  1  0  0  0  0
 30 35  1  0  0  0  0
 30 57  1  0  0  0  0
 31 32  1  0  0  0  0
 31 33  1  0  0  0  0
 32 58  1  0  0  0  0
 33 34  1  0  0  0  0
 33 35  2  0  0  0  0
 34 59  1  0  0  0  0
 35 60  1  0  0  0  0
M  END
> <rseq>
1

> <mseq>
457

> <S>
-7.544409

> <rmsd_refine>
1.281431

> <E_conf>
-14.56103

> <E_score1>
-10.8839

> <E_refine>
-40.81548

> <E_score2>
-7.544409

>  <$File>
outputs/pdb_4j58_cleaned.pdb_2024_06_17__22_47_40_V2_BS398_MIN1_/SDF/sdf_db.sdf

> <Rec_index>
1

>  <PLIF_raw>
[14,954,62,2,1.8]

> <FP:PLIF>
20 23

>  <PLIF_ligidx>
[14,14]

$$$$
457
  MOE2022           3D

 59 61  0  0  1  0  0  0  0  0999 V2000
    3.8420   18.1250   19.2160 O   0  0  0  0  0  0  0  0  0  0  0  0
    2.8990   17.6560   18.5660 C   0  0  0  0  0  0  0  0  0  0  0  0
    1.9020   16.7770   19.1180 C   0  0  0  0  0  0  0  0  0  0  0  0
    2.7880   17.9800   17.2050 N   0  0  0  0  0  0  0  0  0  0  0  0
    0.8840   16.3450   18.3260 C   0  0  0  0  0  0  0  0  0  0  0  0
    1.7350   17.4440   16.4400 C   0  0  0  0  0  0  0  0  0  0  0  0
    0.8310   16.6930   16.9980 N   0  0  0  0  0  0  0  0  0  0  0  0
    1.6630   17.7280   15.0140 C   0  0  0  0  0  0  0  0  0  0  0  0
    3.7770   18.9140   16.5830 C   0  0  0  0  0  0  0  0  0  0  0  0
    2.0010   16.3500   20.5740 C   0  0  0  0  0  0  0  0  0  0  0  0
   -0.2310   15.4480   18.8280 C   0  0  0  0  0  0  0  0  0  0  0  0
    3.3260   20.3900   16.4860 C   0  0  1  0  0  0  0  0  0  0  0  0
    3.2610   21.0940   17.8530 C   0  0  0  0  0  0  0  0  0  0  0  0
    0.6560   18.5690   14.5190 C   0  0  0  0  0  0  0  0  0  0  0  0
    4.2970   21.2630   15.7010 C   0  0  0  0  0  0  0  0  0  0  0  0
    0.5130   18.7710   13.1530 C   0  0  0  0  0  0  0  0  0  0  0  0
    1.3850   18.1340   12.2720 C   0  0  0  0  0  0  0  0  0  0  0  0
    4.7710   20.9640   14.6080 O   0  0  0  0  0  0  0  0  0  0  0  0
    2.5440   17.1110   14.1110 C   0  0  0  0  0  0  0  0  0  0  0  0
    3.7660   22.5190   17.5770 C   0  0  1  0  0  0  0  0  0  0  0  0
    2.4110   17.3140   12.7440 C   0  0  0  0  0  0  0  0  0  0  0  0
    4.5480   23.1230   18.7610 C   0  0  0  0  0  0  0  0  0  0  0  0
    4.0440   24.1120   19.3390 O   0  0  0  0  0  0  0  0  0  0  0  0
    4.5630   22.3770   16.3700 N   0  0  0  0  0  0  0  0  0  0  0  0
    5.6340   22.5920   19.0850 O   0  5  0  0  0  0  0  0  0  0  0  0
    1.1820   18.2990   10.9300 O   0  0  0  0  0  0  0  0  0  0  0  0
    2.1130   19.0300   10.0900 C   0  0  0  0  0  0  0  0  0  0  0  0
    3.4100   18.2980    9.7860 C   0  0  0  0  0  0  0  0  0  0  0  0
    4.4610   18.7610   10.2210 O   0  0  0  0  0  0  0  0  0  0  0  0
    3.3950   17.1680    9.0410 N   0  0  0  0  0  0  0  0  0  0  0  0
    2.1440   16.5120    8.6330 C   0  0  0  0  0  0  0  0  0  0  0  0
    4.6340   16.4290    8.7410 C   0  0  0  0  0  0  0  0  0  0  0  0
    5.2380   15.7100    9.9530 C   0  0  0  0  0  0  0  0  0  0  0  0
    4.4690   15.0710   10.7040 O   0  0  0  0  0  0  0  0  0  0  0  0
    6.4770   15.7970   10.1020 O   0  5  0  0  0  0  0  0  0  0  0  0
    4.7220   18.8790   17.1080 H   0  0  0  0  0  0  0  0  0  0  0  0
    4.0450   18.5700   15.5950 H   0  0  0  0  0  0  0  0  0  0  0  0
    1.2240   16.8130   21.1650 H   0  0  0  0  0  0  0  0  0  0  0  0
    1.8920   15.2800   20.6750 H   0  0  0  0  0  0  0  0  0  0  0  0
    2.9530   16.6010   21.0180 H   0  0  0  0  0  0  0  0  0  0  0  0
   -0.7040   15.8620   19.7070 H   0  0  0  0  0  0  0  0  0  0  0  0
   -1.0030   15.3130   18.0820 H   0  0  0  0  0  0  0  0  0  0  0  0
    0.1410   14.4670   19.0840 H   0  0  0  0  0  0  0  0  0  0  0  0
    2.3510   20.4400   16.0030 H   0  0  0  0  0  0  0  0  0  0  0  0
    2.2430   21.1080   18.2410 H   0  0  0  0  0  0  0  0  0  0  0  0
    3.9390   20.6090   18.5550 H   0  0  0  0  0  0  0  0  0  0  0  0
   -0.0120   19.0420   15.1930 H   0  0  0  0  0  0  0  0  0  0  0  0
   -0.2580   19.3950   12.7810 H   0  0  0  0  0  0  0  0  0  0  0  0
    3.3050   16.4700   14.4730 H   0  0  0  0  0  0  0  0  0  0  0  0
    2.9130   23.1600   17.3520 H   0  0  0  0  0  0  0  0  0  0  0  0
    3.0690   16.8330   12.0680 H   0  0  0  0  0  0  0  0  0  0  0  0
    5.2010   23.0920   16.0550 H   0  0  0  0  0  0  0  0  0  0  0  0
    1.6030   19.2610    9.1650 H   0  0  0  0  0  0  0  0  0  0  0  0
    2.3240   19.9810   10.5620 H   0  0  0  0  0  0  0  0  0  0  0  0
    1.7090   15.9640    9.4580 H   0  0  0  0  0  0  0  0  0  0  0  0
    1.4070   17.2180    8.2780 H   0  0  0  0  0  0  0  0  0  0  0  0
    2.3010   15.8050    7.8300 H   0  0  0  0  0  0  0  0  0  0  0  0
    4.4480   15.6830    7.9690 H   0  0  0  0  0  0  0  0  0  0  0  0
    5.3720   17.1260    8.3450 H   0  0  0  0  0  0  0  0  0  0  0  0
  1  2  2  0  0  0  0
  2  3  1  0  0  0  0
  2  4  1  0  0  0  0
  3  5  2  0  0  0  0
  3 10  1  0  0  0  0
  4  6  1  0  0  0  0
  4  9  1  0  0  0  0
  5  7  1  0  0  0  0
  5 11  1  0  0  0  0
  6  7  2  0  0  0  0
  6  8  1  0  0  0  0
  8 14  1  0  0  0  0
  8 19  2  0  0  0  0
  9 12  1  0  0  0  0
  9 36  1  0  0  0  0
  9 37  1  0  0  0  0
 10 38  1  0  0  0  0
 10 39  1  0  0  0  0
 10 40  1  0  0  0  0
 11 41  1  0  0  0  0
 11 42  1  0  0  0  0
 11 43  1  0  0  0  0
 12 13  1  0  0  0  0
 12 15  1  0  0  0  0
 12 44  1  0  0  0  0
 13 20  1  0  0  0  0
 13 45  1  0  0  0  0
 13 46  1  0  0  0  0
 14 16  2  0  0  0  0
 14 47  1  0  0  0  0
 15 18  2  0  0  0  0
 15 24  1  0  0  0  0
 16 17  1  0  0  0  0
 16 48  1  0  0  0  0
 17 21  2  0  0  0  0
 17 26  1  0  0  0  0
 19 21  1  0  0  0  0
 19 49  1  0  0  0  0
 20 22  1  0  0  0  0
 20 24  1  0  0  0  0
 20 50  1  0  0  0  0
 21 51  1  0  0  0  0
 22 23  2  0  0  0  0
 22 25  1  0  0  0  0
 24 52  1  0  0  0  0
 26 27  1  0  0  0  0
 27 28  1  0  0  0  0
 27 53  1  0  0  0  0
 27 54  1  0  0  0  0
 28 29  2  0  0  0  0
 28 30  1  0  0  0  0
 30 31  1  0  0  0  0
 30 32  1  0  0  0  0
 31 55  1  0  0  0  0
 31 56  1  0  0  0  0
 31 57  1  0  0  0  0
 32 33  1  0  0  0  0
 32 58  1  0  0  0  0
 32 59  1  0  0  0  0
 33 34  2  0  0  0  0
 33 35  1  0  0  0  0
M  CHG  1  25  -1
M  CHG  1  35  -1
M  END
> <rseq>
1

> <mseq>
458

> <S>
-6.064719

> <rmsd_refine>
1.050665

> <E_conf>
-101.7589

> <E_score1>
-11.60537

> <E_refine>
-34.5783

> <E_score2>
-6.064719

>  <$File>
outputs/pdb_4j58_cleaned.pdb_2024_06_17__22_47_40_V2_BS398_MIN1_/SDF/sdf_db.sdf

> <Rec_index>
1

>  <PLIF_raw>
[[23,35,23,25,34,35,2,4,6,7,5,3],[1872,823,1872,1872,823,823,954,954,954,954,954,954],[125,54,125,125,54,54,62,62,62,62,62,62],[2,2,7,7,7,7,10,10,10,10,10,10],[6.2,2.4,4.111800865,3.131986844,1.702841464,4.565499373,0.7,0.7,0.7,0.7,0.7,0.7]]

> <FP:PLIF>
6 19 1 16 21 29 46 13 31

>  <PLIF_ligidx>
[35,35,[34,35],35,[2,4,6,7,5,3],23,23,[23,25],23]

$$$$
458
  MOE2022           3D

 54 56  0  0  1  0  0  0  0  0999 V2000
    8.1890   20.6630   18.4630 C   0  0  0  0  0  0  0  0  0  0  0  0
    8.2820   21.7860   17.6470 C   0  0  0  0  0  0  0  0  0  0  0  0
    6.9500   20.0790   18.7060 C   0  0  0  0  0  0  0  0  0  0  0  0
    5.7950   20.6130   18.1340 C   0  0  0  0  0  0  0  0  0  0  0  0
    5.8960   21.7340   17.3100 C   0  0  0  0  0  0  0  0  0  0  0  0
    7.1350   22.3190   17.0690 C   0  0  0  0  0  0  0  0  0  0  0  0
    4.4410   19.9820   18.4100 C   0  0  0  0  0  0  0  0  0  0  0  0
    3.9580   18.9890   17.3500 C   0  0  0  0  0  0  0  0  0  0  0  0
    2.9030   18.0480   17.5620 N   0  0  0  0  0  0  0  0  0  0  0  0
    2.6640   17.4290   18.8340 C   0  0  0  0  0  0  0  0  0  0  0  0
    2.1890   17.5980   16.3330 C   0  0  2  0  0  0  0  0  0  0  0  0
    4.4320   19.0600   16.2310 O   0  0  0  0  0  0  0  0  0  0  0  0
    0.6680   17.5520   16.5470 C   0  0  1  0  0  0  0  0  0  0  0  0
    1.4440   16.7030   19.2630 C   0  0  0  0  0  0  0  0  0  0  0  0
    2.8720   16.3380   15.7360 C   0  0  0  0  0  0  0  0  0  0  0  0
    1.1670   16.6060   20.4530 O   0  0  0  0  0  0  0  0  0  0  0  0
    3.5870   17.4740   19.6320 O   0  0  0  0  0  0  0  0  0  0  0  0
   -0.0620   17.8640   15.3370 O   0  0  0  0  0  0  0  0  0  0  0  0
    0.2140   16.2570   17.1630 C   0  0  0  0  0  0  0  0  0  0  0  0
    2.2320   15.6840   14.5030 C   0  0  0  0  0  0  0  0  0  0  0  0
    1.8250   16.6310   13.4840 O   0  0  0  0  0  0  0  0  0  0  0  0
    2.5740   17.2680   12.4940 C   0  0  0  0  0  0  0  0  0  0  0  0
   -0.4370   15.4150   16.5790 O   0  0  0  0  0  0  0  0  0  0  0  0
    0.5740   15.9920   18.4520 N   0  0  0  0  0  0  0  0  0  0  0  0
    3.3910   16.5730   11.5900 C   0  0  0  0  0  0  0  0  0  0  0  0
    2.4350   18.6530   12.3660 C   0  0  0  0  0  0  0  0  0  0  0  0
    3.4860   15.2110   11.6710 O   0  0  0  0  0  0  0  0  0  0  0  0
    4.0830   17.2480   10.5640 C   0  0  0  0  0  0  0  0  0  0  0  0
    5.0020   16.5600    9.6600 C   0  0  0  0  0  0  0  0  0  0  0  0
    3.8690   18.6350   10.4470 C   0  0  0  0  0  0  0  0  0  0  0  0
    5.9780   15.9160   10.1350 O   0  5  0  0  0  0  0  0  0  0  0  0
    4.8570   16.6790    8.4140 O   0  0  0  0  0  0  0  0  0  0  0  0
    1.6530   19.3590   13.2380 O   0  0  0  0  0  0  0  0  0  0  0  0
    4.4470   19.3340    9.4280 O   0  0  0  0  0  0  0  0  0  0  0  0
    3.0730   19.3430   11.3410 C   0  0  0  0  0  0  0  0  0  0  0  0
    9.0640   20.2530   18.9000 H   0  0  0  0  0  0  0  0  0  0  0  0
    9.2240   22.2330   17.4660 H   0  0  0  0  0  0  0  0  0  0  0  0
    6.8890   19.2250   19.3300 H   0  0  0  0  0  0  0  0  0  0  0  0
    5.0270   22.1450   16.8650 H   0  0  0  0  0  0  0  0  0  0  0  0
    7.2060   23.1730   16.4450 H   0  0  0  0  0  0  0  0  0  0  0  0
    4.4840   19.5730   19.4020 H   0  0  0  0  0  0  0  0  0  0  0  0
    3.7010   20.7660   18.4860 H   0  0  0  0  0  0  0  0  0  0  0  0
    2.3040   18.3720   15.5870 H   0  0  0  0  0  0  0  0  0  0  0  0
    0.4190   18.3510   17.2340 H   0  0  0  0  0  0  0  0  0  0  0  0
    3.8810   16.6260   15.4540 H   0  0  0  0  0  0  0  0  0  0  0  0
    2.9700   15.5840   16.5140 H   0  0  0  0  0  0  0  0  0  0  0  0
    0.2570   17.3190   14.5970 H   0  0  0  0  0  0  0  0  0  0  0  0
    2.9340   14.9650   14.0840 H   0  0  0  0  0  0  0  0  0  0  0  0
    1.3450   15.1330   14.8120 H   0  0  0  0  0  0  0  0  0  0  0  0
    0.0950   15.1900   18.8910 H   0  0  0  0  0  0  0  0  0  0  0  0
    2.8730   14.8660   12.3480 H   0  0  0  0  0  0  0  0  0  0  0  0
    1.6190   20.3020   12.9860 H   0  0  0  0  0  0  0  0  0  0  0  0
    4.8920   18.7030    8.8210 H   0  0  0  0  0  0  0  0  0  0  0  0
    2.9500   20.3900   11.2350 H   0  0  0  0  0  0  0  0  0  0  0  0
  1  2  2  0  0  0  0
  1  3  1  0  0  0  0
  1 36  1  0  0  0  0
  2  6  1  0  0  0  0
  2 37  1  0  0  0  0
  3  4  2  0  0  0  0
  3 38  1  0  0  0  0
  4  5  1  0  0  0  0
  4  7  1  0  0  0  0
  5  6  2  0  0  0  0
  5 39  1  0  0  0  0
  6 40  1  0  0  0  0
  7  8  1  0  0  0  0
  7 41  1  0  0  0  0
  7 42  1  0  0  0  0
  8  9  1  0  0  0  0
  8 12  2  0  0  0  0
  9 10  1  0  0  0  0
  9 11  1  0  0  0  0
 10 14  1  0  0  0  0
 10 17  2  0  0  0  0
 11 13  1  0  0  0  0
 11 15  1  0  0  0  0
 11 43  1  0  0  0  0
 13 18  1  0  0  0  0
 13 19  1  0  0  0  0
 13 44  1  0  0  0  0
 14 16  2  0  0  0  0
 14 24  1  0  0  0  0
 15 20  1  0  0  0  0
 15 45  1  0  0  0  0
 15 46  1  0  0  0  0
 18 47  1  0  0  0  0
 19 23  2  0  0  0  0
 19 24  1  0  0  0  0
 20 21  1  0  0  0  0
 20 48  1  0  0  0  0
 20 49  1  0  0  0  0
 21 22  1  0  0  0  0
 22 25  1  0  0  0  0
 22 26  2  0  0  0  0
 24 50  1  0  0  0  0
 25 27  1  0  0  0  0
 25 28  2  0  0  0  0
 26 33  1  0  0  0  0
 26 35  1  0  0  0  0
 27 51  1  0  0  0  0
 28 29  1  0  0  0  0
 28 30  1  0  0  0  0
 29 31  1  0  0  0  0
 29 32  2  0  0  0  0
 30 34  1  0  0  0  0
 30 35  2  0  0  0  0
 33 52  1  0  0  0  0
 34 53  1  0  0  0  0
 35 54  1  0  0  0  0
M  CHG  1  31  -1
M  END
> <rseq>
1

> <mseq>
459

> <S>
-6.899787

> <rmsd_refine>
1.626226

> <E_conf>
-75.765

> <E_score1>
-10.4861

> <E_refine>
-41.69559

> <E_score2>
-6.899787

>  <$File>
outputs/pdb_4j58_cleaned.pdb_2024_06_17__22_47_40_V2_BS398_MIN1_/SDF/sdf_db.sdf

> <Rec_index>
1

>  <PLIF_raw>
[[31,31],[823,823],[54,54],[2,7],[6.3,4.876597831]]

> <FP:PLIF>
6 19 1 16

>  <PLIF_ligidx>
[31,31,31,31]

$$$$
459
  MOE2022           3D

 67 70  0  0  1  0  0  0  0  0999 V2000
    7.1900   21.0170   19.4270 C   0  0  0  0  0  0  0  0  0  0  0  0
    6.3440   19.9590   19.1170 C   0  0  0  0  0  0  0  0  0  0  0  0
    5.0490   20.2210   18.6730 C   0  0  0  0  0  0  0  0  0  0  0  0
    4.2630   19.1420   18.3050 O   0  0  0  0  0  0  0  0  0  0  0  0
    3.1430   19.1960   17.3530 C   0  0  1  0  0  0  0  0  0  0  0  0
    4.5840   21.5360   18.5740 C   0  0  0  0  0  0  0  0  0  0  0  0
    6.7410   22.3290   19.3060 C   0  0  0  0  0  0  0  0  0  0  0  0
    5.4390   22.5870   18.8850 C   0  0  0  0  0  0  0  0  0  0  0  0
    3.6210   19.5190   15.9350 C   0  0  0  0  0  0  0  0  0  0  0  0
    4.5270   20.3360   15.7700 O   0  0  0  0  0  0  0  0  0  0  0  0
    2.3200   17.9000   17.4520 C   0  0  2  0  0  0  0  0  0  0  0  0
    3.0080   18.9560   14.8660 N   0  0  0  0  0  0  0  0  0  0  0  0
    1.2590   17.8090   16.3340 C   0  0  2  0  0  0  0  0  0  0  0  0
    2.0280   17.8480   14.9820 C   0  0  1  0  0  0  0  0  0  0  0  0
    1.7250   17.8190   18.7370 O   0  0  0  0  0  0  0  0  0  0  0  0
    3.4290   19.3210   13.5010 C   0  0  0  0  0  0  0  0  0  0  0  0
    0.3020   18.9430   16.4130 N   0  0  0  0  0  0  0  0  0  0  0  0
    0.5120   16.4610   16.4830 C   0  0  0  0  0  0  0  0  0  0  0  0
   -0.5530   16.3020   15.5660 O   0  0  0  0  0  0  0  0  0  0  0  0
    1.0910   17.8760   13.8360 O   0  0  0  0  0  0  0  0  0  0  0  0
    1.1060   16.8550   12.7450 C   0  0  2  0  0  0  0  0  0  0  0  0
    2.0060   15.6130   12.9720 C   0  0  0  0  0  0  0  0  0  0  0  0
    1.3620   17.5060   11.4010 C   0  0  0  0  0  0  0  0  0  0  0  0
    0.4900   17.6790   10.5510 O   0  0  0  0  0  0  0  0  0  0  0  0
    2.2470   14.7710   11.6950 C   0  0  2  0  0  0  0  0  0  0  0  0
    2.6480   17.5990   11.0440 O   0  0  0  0  0  0  0  0  0  0  0  0
    3.1520   16.5990   10.1260 C   0  0  1  0  0  0  0  0  0  0  0  0
    2.4250   13.4320   12.1010 O   0  0  0  0  0  0  0  0  0  0  0  0
    4.3880   17.1430    9.3880 C   0  0  2  0  0  0  0  0  0  0  0  0
    3.4750   15.2890   10.8850 C   0  0  2  0  0  0  0  0  0  0  0  0
    4.0500   14.2560    9.8890 C   0  0  0  0  0  0  0  0  0  0  0  0
    5.2860   14.7840    9.1380 C   0  0  2  0  0  0  0  0  0  0  0  0
    4.0480   18.3010    8.6540 O   0  0  0  0  0  0  0  0  0  0  0  0
    6.3640   14.9790   10.0340 O   0  0  0  0  0  0  0  0  0  0  0  0
    4.9730   16.1030    8.4230 C   0  0  0  0  0  0  0  0  0  0  0  0
    8.1820   20.8260   19.7450 H   0  0  0  0  0  0  0  0  0  0  0  0
    6.6880   18.9630   19.2010 H   0  0  0  0  0  0  0  0  0  0  0  0
    2.4900   19.9990   17.6670 H   0  0  0  0  0  0  0  0  0  0  0  0
    3.5960   21.7420   18.2560 H   0  0  0  0  0  0  0  0  0  0  0  0
    7.3900   23.1320   19.5360 H   0  0  0  0  0  0  0  0  0  0  0  0
    5.1000   23.5870   18.7970 H   0  0  0  0  0  0  0  0  0  0  0  0
    3.0130   17.0630   17.3440 H   0  0  0  0  0  0  0  0  0  0  0  0
    2.5920   16.9320   14.9510 H   0  0  0  0  0  0  0  0  0  0  0  0
    2.3740   18.0950   19.3910 H   0  0  0  0  0  0  0  0  0  0  0  0
    4.1390   20.1350   13.4660 H   0  0  0  0  0  0  0  0  0  0  0  0
    3.8920   18.4800   13.0080 H   0  0  0  0  0  0  0  0  0  0  0  0
    2.5880   19.6410   12.9010 H   0  0  0  0  0  0  0  0  0  0  0  0
    0.7870   19.8170   16.2690 H   0  0  0  0  0  0  0  0  0  0  0  0
   -0.1430   18.9450   17.3200 H   0  0  0  0  0  0  0  0  0  0  0  0
    1.2200   15.6470   16.3390 H   0  0  0  0  0  0  0  0  0  0  0  0
    0.0960   16.3820   17.4870 H   0  0  0  0  0  0  0  0  0  0  0  0
   -1.0830   17.1050   15.5850 H   0  0  0  0  0  0  0  0  0  0  0  0
    0.0860   16.4950   12.7060 H   0  0  0  0  0  0  0  0  0  0  0  0
    2.9840   15.9170   13.3380 H   0  0  0  0  0  0  0  0  0  0  0  0
    1.5310   15.0000   13.7400 H   0  0  0  0  0  0  0  0  0  0  0  0
    1.3590   14.7970   11.0620 H   0  0  0  0  0  0  0  0  0  0  0  0
    2.3750   16.3970    9.3860 H   0  0  0  0  0  0  0  0  0  0  0  0
    1.6310   13.1340   12.5530 H   0  0  0  0  0  0  0  0  0  0  0  0
    5.1430   17.4070   10.1280 H   0  0  0  0  0  0  0  0  0  0  0  0
    4.2700   15.5060   11.5970 H   0  0  0  0  0  0  0  0  0  0  0  0
    4.3430   13.3500   10.4210 H   0  0  0  0  0  0  0  0  0  0  0  0
    3.2790   13.9890    9.1640 H   0  0  0  0  0  0  0  0  0  0  0  0
    5.5860   14.0420    8.3970 H   0  0  0  0  0  0  0  0  0  0  0  0
    3.5910   18.9120    9.2380 H   0  0  0  0  0  0  0  0  0  0  0  0
    7.1700   15.0780    9.5200 H   0  0  0  0  0  0  0  0  0  0  0  0
    4.2530   15.9090    7.6260 H   0  0  0  0  0  0  0  0  0  0  0  0
    5.8860   16.4960    7.9720 H   0  0  0  0  0  0  0  0  0  0  0  0
  1  2  1  0  0  0  0
  1  7  2  0  0  0  0
  1 36  1  0  0  0  0
  2  3  2  0  0  0  0
  2 37  1  0  0  0  0
  3  4  1  0  0  0  0
  3  6  1  0  0  0  0
  4  5  1  0  0  0  0
  5  9  1  0  0  0  0
  5 11  1  0  0  0  0
  5 38  1  0  0  0  0
  6  8  2  0  0  0  0
  6 39  1  0  0  0  0
  7  8  1  0  0  0  0
  7 40  1  0  0  0  0
  8 41  1  0  0  0  0
  9 10  2  0  0  0  0
  9 12  1  0  0  0  0
 11 13  1  0  0  0  0
 11 15  1  0  0  0  0
 11 42  1  0  0  0  0
 12 14  1  0  0  0  0
 12 16  1  0  0  0  0
 13 14  1  0  0  0  0
 13 17  1  0  0  0  0
 13 18  1  0  0  0  0
 14 20  1  0  0  0  0
 14 43  1  0  0  0  0
 15 44  1  0  0  0  0
 16 45  1  0  0  0  0
 16 46  1  0  0  0  0
 16 47  1  0  0  0  0
 17 48  1  0  0  0  0
 17 49  1  0  0  0  0
 18 19  1  0  0  0  0
 18 50  1  0  0  0  0
 18 51  1  0  0  0  0
 19 52  1  0  0  0  0
 20 21  1  0  0  0  0
 21 22  1  0  0  0  0
 21 23  1  0  0  0  0
 21 53  1  0  0  0  0
 22 25  1  0  0  0  0
 22 54  1  0  0  0  0
 22 55  1  0  0  0  0
 23 24  2  0  0  0  0
 23 26  1  0  0  0  0
 25 28  1  0  0  0  0
 25 30  1  0  0  0  0
 25 56  1  0  0  0  0
 26 27  1  0  0  0  0
 27 29  1  0  0  0  0
 27 30  1  0  0  0  0
 27 57  1  0  0  0  0
 28 58  1  0  0  0  0
 29 33  1  0  0  0  0
 29 35  1  0  0  0  0
 29 59  1  0  0  0  0
 30 31  1  0  0  0  0
 30 60  1  0  0  0  0
 31 32  1  0  0  0  0
 31 61  1  0  0  0  0
 31 62  1  0  0  0  0
 32 34  1  0  0  0  0
 32 35  1  0  0  0  0
 32 63  1  0  0  0  0
 33 64  1  0  0  0  0
 34 65  1  0  0  0  0
 35 66  1  0  0  0  0
 35 67  1  0  0  0  0
M  END
> <rseq>
1

> <mseq>
460

> <S>
-6.499683

> <rmsd_refine>
1.650464

> <E_conf>
114.7698

> <E_score1>
-13.14257

> <E_refine>
-34.93603

> <E_score2>
-6.499683

>  <$File>
outputs/pdb_4j58_cleaned.pdb_2024_06_17__22_47_40_V2_BS398_MIN1_/SDF/sdf_db.sdf

> <Rec_index>
1

>  <PLIF_raw>
[[],[],[],[],[]]

>  <PLIF_ligidx>
[]

$$$$
460
  MOE2022           3D

 62 65  0  0  1  0  0  0  0  0999 V2000
    1.5590   16.1350   20.5110 C   0  0  0  0  0  0  0  0  0  0  0  0
    0.2240   15.7680   20.3790 C   0  0  0  0  0  0  0  0  0  0  0  0
    2.2260   16.7250   19.4420 C   0  0  0  0  0  0  0  0  0  0  0  0
   -0.4380   15.9740   19.1750 C   0  0  0  0  0  0  0  0  0  0  0  0
    0.2240   16.5740   18.1110 C   0  0  0  0  0  0  0  0  0  0  0  0
    1.5570   16.9670   18.2380 C   0  0  0  0  0  0  0  0  0  0  0  0
    2.2390   17.6310   17.0520 C   0  0  1  0  0  0  0  0  0  0  0  0
    3.2870   18.5690   17.4720 N   0  0  0  0  0  0  0  0  0  0  0  0
    2.7330   16.6030   16.0420 C   0  0  0  0  0  0  0  0  0  0  0  0
    4.0190   19.3670   16.6240 C   0  0  0  0  0  0  0  0  0  0  0  0
    2.1300   16.6200   14.8450 N   0  0  0  0  0  0  0  0  0  0  0  0
    3.6870   19.3970   15.4390 O   0  0  0  0  0  0  0  0  0  0  0  0
    5.1610   20.1090   17.1740 C   0  0  0  0  0  0  0  0  0  0  0  0
    3.6520   15.8250   16.2960 O   0  0  0  0  0  0  0  0  0  0  0  0
    2.5510   15.8220   13.7040 C   0  0  1  0  0  0  0  0  0  0  0  0
    1.7460   14.5410   13.5520 C   0  0  0  0  0  0  0  0  0  0  0  0
    2.3610   16.5410   12.3710 C   0  0  0  0  0  0  0  0  0  0  0  0
    5.6260   19.8310   18.4740 C   0  0  0  0  0  0  0  0  0  0  0  0
    1.4990   14.4030   12.0460 C   0  0  0  0  0  0  0  0  0  0  0  0
    5.8540   21.0940   16.4280 C   0  0  0  0  0  0  0  0  0  0  0  0
    2.1790   15.5110   11.3450 N   0  0  0  0  0  0  0  0  0  0  0  0
    6.7530   20.4720   18.9690 C   0  0  0  0  0  0  0  0  0  0  0  0
    5.4310   21.4710   15.1850 O   0  0  0  0  0  0  0  0  0  0  0  0
    3.3640   15.2690   10.6120 C   0  0  0  0  0  0  0  0  0  0  0  0
    7.4510   21.3970   18.1880 C   0  0  0  0  0  0  0  0  0  0  0  0
    8.5910   21.9760   18.6650 O   0  0  0  0  0  0  0  0  0  0  0  0
    7.1710   20.1850   20.2380 O   0  0  0  0  0  0  0  0  0  0  0  0
    6.9970   21.7250   16.9180 C   0  0  0  0  0  0  0  0  0  0  0  0
    3.7220   16.2040    9.6380 C   0  0  0  0  0  0  0  0  0  0  0  0
    4.1820   14.1510   10.8450 C   0  0  0  0  0  0  0  0  0  0  0  0
    4.8870   16.0040    8.9110 C   0  0  0  0  0  0  0  0  0  0  0  0
    5.2260   16.8960    7.9400 O   0  0  0  0  0  0  0  0  0  0  0  0
    5.3580   13.9760   10.1170 C   0  0  0  0  0  0  0  0  0  0  0  0
    6.2440   12.7720   10.3570 C   0  0  0  0  0  0  0  0  0  0  0  0
    5.7120   14.9070    9.1440 C   0  0  0  0  0  0  0  0  0  0  0  0
    2.0690   15.9670   21.4240 H   0  0  0  0  0  0  0  0  0  0  0  0
   -0.2930   15.3340   21.1910 H   0  0  0  0  0  0  0  0  0  0  0  0
    3.2450   16.9890   19.5540 H   0  0  0  0  0  0  0  0  0  0  0  0
   -1.4520   15.6840   19.0710 H   0  0  0  0  0  0  0  0  0  0  0  0
   -0.2930   16.7340   17.2000 H   0  0  0  0  0  0  0  0  0  0  0  0
    1.4820   18.2300   16.5620 H   0  0  0  0  0  0  0  0  0  0  0  0
    3.5030   18.5900   18.4790 H   0  0  0  0  0  0  0  0  0  0  0  0
    1.3820   17.2790   14.6900 H   0  0  0  0  0  0  0  0  0  0  0  0
    3.6060   15.5620   13.7810 H   0  0  0  0  0  0  0  0  0  0  0  0
    2.3180   13.6930   13.9220 H   0  0  0  0  0  0  0  0  0  0  0  0
    0.7920   14.6100   14.0760 H   0  0  0  0  0  0  0  0  0  0  0  0
    1.4730   17.1580   12.4060 H   0  0  0  0  0  0  0  0  0  0  0  0
    3.1920   17.2010   12.1620 H   0  0  0  0  0  0  0  0  0  0  0  0
    5.1310   19.1240   19.0870 H   0  0  0  0  0  0  0  0  0  0  0  0
    1.7880   13.4300   11.6760 H   0  0  0  0  0  0  0  0  0  0  0  0
    0.4370   14.4760   11.8550 H   0  0  0  0  0  0  0  0  0  0  0  0
    4.6120   20.9850   14.9490 H   0  0  0  0  0  0  0  0  0  0  0  0
    8.8180   21.5960   19.5380 H   0  0  0  0  0  0  0  0  0  0  0  0
    6.6620   19.4390   20.6060 H   0  0  0  0  0  0  0  0  0  0  0  0
    7.5130   22.4420   16.3320 H   0  0  0  0  0  0  0  0  0  0  0  0
    3.1090   17.0480    9.4520 H   0  0  0  0  0  0  0  0  0  0  0  0
    3.9160   13.4410   11.5790 H   0  0  0  0  0  0  0  0  0  0  0  0
    6.0570   16.6290    7.5010 H   0  0  0  0  0  0  0  0  0  0  0  0
    7.2970   13.0470   10.2890 H   0  0  0  0  0  0  0  0  0  0  0  0
    6.0750   12.3490   11.3470 H   0  0  0  0  0  0  0  0  0  0  0  0
    6.0410   11.9990    9.6160 H   0  0  0  0  0  0  0  0  0  0  0  0
    6.5950   14.7780    8.5810 H   0  0  0  0  0  0  0  0  0  0  0  0
  1  2  2  0  0  0  0
  1  3  1  0  0  0  0
  1 36  1  0  0  0  0
  2  4  1  0  0  0  0
  2 37  1  0  0  0  0
  3  6  2  0  0  0  0
  3 38  1  0  0  0  0
  4  5  2  0  0  0  0
  4 39  1  0  0  0  0
  5  6  1  0  0  0  0
  5 40  1  0  0  0  0
  6  7  1  0  0  0  0
  7  8  1  0  0  0  0
  7  9  1  0  0  0  0
  7 41  1  0  0  0  0
  8 10  1  0  0  0  0
  8 42  1  0  0  0  0
  9 11  1  0  0  0  0
  9 14  2  0  0  0  0
 10 12  2  0  0  0  0
 10 13  1  0  0  0  0
 11 15  1  0  0  0  0
 11 43  1  0  0  0  0
 13 18  1  0  0  0  0
 13 20  2  0  0  0  0
 15 16  1  0  0  0  0
 15 17  1  0  0  0  0
 15 44  1  0  0  0  0
 16 19  1  0  0  0  0
 16 45  1  0  0  0  0
 16 46  1  0  0  0  0
 17 21  1  0  0  0  0
 17 47  1  0  0  0  0
 17 48  1  0  0  0  0
 18 22  2  0  0  0  0
 18 49  1  0  0  0  0
 19 21  1  0  0  0  0
 19 50  1  0  0  0  0
 19 51  1  0  0  0  0
 20 23  1  0  0  0  0
 20 28  1  0  0  0  0
 21 24  1  0  0  0  0
 22 25  1  0  0  0  0
 22 27  1  0  0  0  0
 23 52  1  0  0  0  0
 24 29  2  0  0  0  0
 24 30  1  0  0  0  0
 25 26  1  0  0  0  0
 25 28  2  0  0  0  0
 26 53  1  0  0  0  0
 27 54  1  0  0  0  0
 28 55  1  0  0  0  0
 29 31  1  0  0  0  0
 29 56  1  0  0  0  0
 30 33  2  0  0  0  0
 30 57  1  0  0  0  0
 31 32  1  0  0  0  0
 31 35  2  0  0  0  0
 32 58  1  0  0  0  0
 33 34  1  0  0  0  0
 33 35  1  0  0  0  0
 34 59  1  0  0  0  0
 34 60  1  0  0  0  0
 34 61  1  0  0  0  0
 35 62  1  0  0  0  0
M  END
> <rseq>
1

> <mseq>
461

> <S>
-7.671871

> <rmsd_refine>
1.692373

> <E_conf>
-26.20599

> <E_score1>
-10.1245

> <E_refine>
-44.19315

> <E_score2>
-7.671871

>  <$File>
outputs/pdb_4j58_cleaned.pdb_2024_06_17__22_47_40_V2_BS398_MIN1_/SDF/sdf_db.sdf

> <Rec_index>
1

>  <PLIF_raw>
[[14,26,26,26,26,26,26,1,3,6,5,4,2],[954,1651,1655,1659,1657,1653,1650,1519,1519,1519,1519,1519,1519],[62,112,112,112,112,112,112,102,102,102,102,102,102],[2,10,10,10,10,10,10,10,10,10,10,10,10],[1.7,1.7,1.7,1.7,1.7,1.7,1.7,0.6,0.6,0.6,0.6,0.6,0.6]]

> <FP:PLIF>
20 23 22 15 47

>  <PLIF_ligidx>
[14,14,[1,3,6,5,4,2],[26,26,26,26,26,26],[26,26,26,26,26,26]]

$$$$
461
  MOE2022           3D

 63 67  0  0  1  0  0  0  0  0999 V2000
    1.6330   16.1370   20.5110 C   0  0  0  0  0  0  0  0  0  0  0  0
    0.2990   15.7630   20.3920 C   0  0  0  0  0  0  0  0  0  0  0  0
    2.2800   16.7460   19.4410 C   0  0  0  0  0  0  0  0  0  0  0  0
   -0.3810   15.9790   19.2000 C   0  0  0  0  0  0  0  0  0  0  0  0
    0.2630   16.5970   18.1340 C   0  0  0  0  0  0  0  0  0  0  0  0
    1.5930   16.9980   18.2490 C   0  0  0  0  0  0  0  0  0  0  0  0
    2.2510   17.6890   17.0650 C   0  0  1  0  0  0  0  0  0  0  0  0
    3.3090   18.6170   17.4830 N   0  0  0  0  0  0  0  0  0  0  0  0
    2.7230   16.6920   16.0140 C   0  0  0  0  0  0  0  0  0  0  0  0
    4.0240   19.4340   16.6390 C   0  0  0  0  0  0  0  0  0  0  0  0
    2.0850   16.7450   14.8370 N   0  0  0  0  0  0  0  0  0  0  0  0
    3.6580   19.5030   15.4660 O   0  0  0  0  0  0  0  0  0  0  0  0
    5.1870   20.1500   17.1800 C   0  0  0  0  0  0  0  0  0  0  0  0
    3.6580   15.9170   16.2160 O   0  0  0  0  0  0  0  0  0  0  0  0
    2.5270   16.0570   13.6340 C   0  0  1  0  0  0  0  0  0  0  0  0
    1.9000   14.6870   13.4690 C   0  0  0  0  0  0  0  0  0  0  0  0
    2.1380   16.7910   12.3580 C   0  0  0  0  0  0  0  0  0  0  0  0
    5.6480   19.8670   18.4810 C   0  0  0  0  0  0  0  0  0  0  0  0
    1.6680   14.5280   11.9570 C   0  0  1  0  0  0  0  0  0  0  0  0
    5.9030   21.1120   16.4270 C   0  0  0  0  0  0  0  0  0  0  0  0
    2.0570   15.7980   11.2800 N   0  0  0  0  0  0  0  0  0  0  0  0
    6.7900   20.4840   18.9700 C   0  0  0  0  0  0  0  0  0  0  0  0
    5.4870   21.4920   15.1820 O   0  0  0  0  0  0  0  0  0  0  0  0
    3.2210   15.7880   10.4500 C   0  0  0  0  0  0  0  0  0  0  0  0
    7.5110   21.3860   18.1830 C   0  0  0  0  0  0  0  0  0  0  0  0
    8.6640   21.9400   18.6550 O   0  0  0  0  0  0  0  0  0  0  0  0
    7.2000   20.1940   20.2400 O   0  0  0  0  0  0  0  0  0  0  0  0
    7.0630   21.7170   16.9110 C   0  0  0  0  0  0  0  0  0  0  0  0
    3.5290   16.8920    9.6320 C   0  0  0  0  0  0  0  0  0  0  0  0
    4.0880   14.6770   10.4540 C   0  0  0  0  0  0  0  0  0  0  0  0
    2.6050   18.0890    9.4850 C   0  0  0  0  0  0  0  0  0  0  0  0
    4.7250   16.8900    8.9140 C   0  0  0  0  0  0  0  0  0  0  0  0
    3.7610   13.5310   11.1420 O   0  0  0  0  0  0  0  0  0  0  0  0
    2.3580   13.2950   11.3560 C   0  0  0  0  0  0  0  0  0  0  0  0
    5.6030   15.8120    8.9800 C   0  0  0  0  0  0  0  0  0  0  0  0
    5.2850   14.6990    9.7500 C   0  0  0  0  0  0  0  0  0  0  0  0
    2.1560   15.9620   21.4150 H   0  0  0  0  0  0  0  0  0  0  0  0
   -0.2030   15.3160   21.2050 H   0  0  0  0  0  0  0  0  0  0  0  0
    3.2990   17.0170   19.5440 H   0  0  0  0  0  0  0  0  0  0  0  0
   -1.3940   15.6830   19.1060 H   0  0  0  0  0  0  0  0  0  0  0  0
   -0.2680   16.7660   17.2330 H   0  0  0  0  0  0  0  0  0  0  0  0
    1.4840   18.3020   16.6090 H   0  0  0  0  0  0  0  0  0  0  0  0
    3.5570   18.6010   18.4830 H   0  0  0  0  0  0  0  0  0  0  0  0
    1.3210   17.3950   14.7320 H   0  0  0  0  0  0  0  0  0  0  0  0
    3.6110   15.9510   13.6260 H   0  0  0  0  0  0  0  0  0  0  0  0
    2.5650   13.9210   13.8650 H   0  0  0  0  0  0  0  0  0  0  0  0
    0.9400   14.6410   13.9840 H   0  0  0  0  0  0  0  0  0  0  0  0
    1.1680   17.2550   12.4780 H   0  0  0  0  0  0  0  0  0  0  0  0
    2.8440   17.5840   12.1570 H   0  0  0  0  0  0  0  0  0  0  0  0
    5.1390   19.1760   19.1000 H   0  0  0  0  0  0  0  0  0  0  0  0
    0.6040   14.3950   11.8130 H   0  0  0  0  0  0  0  0  0  0  0  0
    4.6530   21.0300   14.9540 H   0  0  0  0  0  0  0  0  0  0  0  0
    8.8830   21.5630   19.5310 H   0  0  0  0  0  0  0  0  0  0  0  0
    6.6710   19.4640   20.6130 H   0  0  0  0  0  0  0  0  0  0  0  0
    7.5950   22.4180   16.3200 H   0  0  0  0  0  0  0  0  0  0  0  0
    2.8300   18.8420   10.2400 H   0  0  0  0  0  0  0  0  0  0  0  0
    2.7260   18.5490    8.5030 H   0  0  0  0  0  0  0  0  0  0  0  0
    1.5590   17.7960    9.5790 H   0  0  0  0  0  0  0  0  0  0  0  0
    4.9720   17.7190    8.3020 H   0  0  0  0  0  0  0  0  0  0  0  0
    2.2350   12.4280   12.0050 H   0  0  0  0  0  0  0  0  0  0  0  0
    1.9080   13.0680   10.3900 H   0  0  0  0  0  0  0  0  0  0  0  0
    6.5060   15.8360    8.4300 H   0  0  0  0  0  0  0  0  0  0  0  0
    5.9410   13.8680    9.7880 H   0  0  0  0  0  0  0  0  0  0  0  0
  1  2  2  0  0  0  0
  1  3  1  0  0  0  0
  1 37  1  0  0  0  0
  2  4  1  0  0  0  0
  2 38  1  0  0  0  0
  3  6  2  0  0  0  0
  3 39  1  0  0  0  0
  4  5  2  0  0  0  0
  4 40  1  0  0  0  0
  5  6  1  0  0  0  0
  5 41  1  0  0  0  0
  6  7  1  0  0  0  0
  7  8  1  0  0  0  0
  7  9  1  0  0  0  0
  7 42  1  0  0  0  0
  8 10  1  0  0  0  0
  8 43  1  0  0  0  0
  9 11  1  0  0  0  0
  9 14  2  0  0  0  0
 10 12  2  0  0  0  0
 10 13  1  0  0  0  0
 11 15  1  0  0  0  0
 11 44  1  0  0  0  0
 13 18  1  0  0  0  0
 13 20  2  0  0  0  0
 15 16  1  0  0  0  0
 15 17  1  0  0  0  0
 15 45  1  0  0  0  0
 16 19  1  0  0  0  0
 16 46  1  0  0  0  0
 16 47  1  0  0  0  0
 17 21  1  0  0  0  0
 17 48  1  0  0  0  0
 17 49  1  0  0  0  0
 18 22  2  0  0  0  0
 18 50  1  0  0  0  0
 19 21  1  0  0  0  0
 19 34  1  0  0  0  0
 19 51  1  0  0  0  0
 20 23  1  0  0  0  0
 20 28  1  0  0  0  0
 21 24  1  0  0  0  0
 22 25  1  0  0  0  0
 22 27  1  0  0  0  0
 23 52  1  0  0  0  0
 24 29  1  0  0  0  0
 24 30  2  0  0  0  0
 25 26  1  0  0  0  0
 25 28  2  0  0  0  0
 26 53  1  0  0  0  0
 27 54  1  0  0  0  0
 28 55  1  0  0  0  0
 29 31  1  0  0  0  0
 29 32  2  0  0  0  0
 30 33  1  0  0  0  0
 30 36  1  0  0  0  0
 31 56  1  0  0  0  0
 31 57  1  0  0  0  0
 31 58  1  0  0  0  0
 32 35  1  0  0  0  0
 32 59  1  0  0  0  0
 33 34  1  0  0  0  0
 34 60  1  0  0  0  0
 34 61  1  0  0  0  0
 35 36  2  0  0  0  0
 35 62  1  0  0  0  0
 36 63  1  0  0  0  0
M  END
> <rseq>
1

> <mseq>
462

> <S>
-7.414405

> <rmsd_refine>
1.571781

> <E_conf>
28.12483

> <E_score1>
-10.1174

> <E_refine>
-42.3112

> <E_score2>
-7.414405

>  <$File>
outputs/pdb_4j58_cleaned.pdb_2024_06_17__22_47_40_V2_BS398_MIN1_/SDF/sdf_db.sdf

> <Rec_index>
1

>  <PLIF_raw>
[[14,26,26,26,26,26,26,24,30,36,35,32,29,1,3,6,5,4,2],[954,1651,1655,1659,1657,1653,1650,823,823,823,823,823,823,1519,1519,1519,1519,1519,1519],[62,112,112,112,112,112,112,54,54,54,54,54,54,102,102,102,102,102,102],[2,10,10,10,10,10,10,10,10,10,10,10,10,10,10,10,10,10,10],[1.9,1.6,1.6,1.6,1.6,1.6,1.6,2,2,2,2,2,2,0.5,0.5,0.5,0.5,0.5,0.5]]

> <FP:PLIF>
2 5 20 23 22 15 47

>  <PLIF_ligidx>
[[24,30,36,35,32,29],[24,30,36,35,32,29],14,14,[1,3,6,5,4,2],[26,26,26,26,26,26],[26,26,26,26,26,26]]

$$$$
462
  MOE2022           3D

 65 68  0  0  1  0  0  0  0  0999 V2000
    6.1590   14.4920   10.0870 C   0  0  0  0  0  0  0  0  0  0  0  0
    5.8450   15.7560    9.6000 C   0  0  0  0  0  0  0  0  0  0  0  0
    4.6170   16.3340    9.9000 C   0  0  0  0  0  0  0  0  0  0  0  0
    3.6810   15.6480   10.6850 C   0  0  0  0  0  0  0  0  0  0  0  0
    4.0040   14.3690   11.1590 C   0  0  0  0  0  0  0  0  0  0  0  0
    5.2370   13.7980   10.8620 C   0  0  0  0  0  0  0  0  0  0  0  0
    2.3720   16.2450   10.9500 C   0  0  0  0  0  0  0  0  0  0  0  0
    1.8320   16.2500   12.2310 N   0  0  0  0  0  0  0  0  0  0  0  0
    1.7150   16.7480   10.0410 O   0  0  0  0  0  0  0  0  0  0  0  0
    2.6630   16.2430   13.4540 C   0  0  0  0  0  0  0  0  0  0  0  0
    0.4350   16.6710   12.4580 C   0  0  0  0  0  0  0  0  0  0  0  0
    1.9850   15.5280   14.6360 C   0  0  0  0  0  0  0  0  0  0  0  0
   -0.2250   15.9380   13.6370 C   0  0  0  0  0  0  0  0  0  0  0  0
    0.6000   15.9850   14.8550 N   0  0  0  0  0  0  0  0  0  0  0  0
    0.0400   16.2080   16.1070 C   0  0  0  0  0  0  0  0  0  0  0  0
   -1.1820   16.1370   16.2140 O   0  0  0  0  0  0  0  0  0  0  0  0
    0.8790   16.5350   17.2600 C   0  0  0  0  0  0  0  0  0  0  0  0
    1.8960   17.4910   17.1650 C   0  0  0  0  0  0  0  0  0  0  0  0
    0.6290   15.9240   18.4970 C   0  0  0  0  0  0  0  0  0  0  0  0
    1.3970   16.2350   19.6160 C   0  0  0  0  0  0  0  0  0  0  0  0
    2.6720   17.7870   18.2880 C   0  0  0  0  0  0  0  0  0  0  0  0
    2.4380   17.1470   19.5040 C   0  0  0  0  0  0  0  0  0  0  0  0
    1.1030   15.5980   20.9520 C   0  0  0  0  0  0  0  0  0  0  0  0
    3.6790   18.7850   18.2910 N   0  0  0  0  0  0  0  0  0  0  0  0
    4.4230   19.2630   17.2380 C   0  0  0  0  0  0  0  0  0  0  0  0
    4.3490   18.7380   16.1400 O   0  0  0  0  0  0  0  0  0  0  0  0
    5.3690   20.4230   17.5600 C   0  0  2  0  0  0  0  0  0  0  0  0
    4.7610   21.4730   18.5110 C   0  0  0  0  0  0  0  0  0  0  0  0
    5.9220   21.1130   16.3230 C   0  0  0  0  0  0  0  0  0  0  0  0
    7.3000   21.3230   16.1980 C   0  0  0  0  0  0  0  0  0  0  0  0
    5.0620   21.5540   15.3120 C   0  0  0  0  0  0  0  0  0  0  0  0
    5.5850   22.1710   14.1810 C   0  0  0  0  0  0  0  0  0  0  0  0
    4.7380   22.5750   13.1820 O   0  0  0  0  0  0  0  0  0  0  0  0
    6.9610   22.3680   14.0600 C   0  0  0  0  0  0  0  0  0  0  0  0
    7.4680   22.9740   12.9440 O   0  0  0  0  0  0  0  0  0  0  0  0
    7.8220   21.9490   15.0680 C   0  0  0  0  0  0  0  0  0  0  0  0
    7.0960   14.0530    9.8640 H   0  0  0  0  0  0  0  0  0  0  0  0
    6.5400   16.2730    8.9930 H   0  0  0  0  0  0  0  0  0  0  0  0
    4.3850   17.2970    9.5230 H   0  0  0  0  0  0  0  0  0  0  0  0
    3.3030   13.8270   11.7410 H   0  0  0  0  0  0  0  0  0  0  0  0
    5.4760   12.8300   11.2200 H   0  0  0  0  0  0  0  0  0  0  0  0
    3.6240   15.7890   13.2810 H   0  0  0  0  0  0  0  0  0  0  0  0
    2.8740   17.2640   13.7400 H   0  0  0  0  0  0  0  0  0  0  0  0
    0.4120   17.7360   12.6460 H   0  0  0  0  0  0  0  0  0  0  0  0
   -0.1690   16.5120   11.5750 H   0  0  0  0  0  0  0  0  0  0  0  0
    1.9670   14.4670   14.4270 H   0  0  0  0  0  0  0  0  0  0  0  0
    2.5960   15.6310   15.5200 H   0  0  0  0  0  0  0  0  0  0  0  0
   -1.2040   16.3650   13.8040 H   0  0  0  0  0  0  0  0  0  0  0  0
   -0.3950   14.9060   13.3620 H   0  0  0  0  0  0  0  0  0  0  0  0
    2.0480   18.0010   16.2500 H   0  0  0  0  0  0  0  0  0  0  0  0
   -0.1580   15.2180   18.5770 H   0  0  0  0  0  0  0  0  0  0  0  0
    3.0410   17.3710   20.3450 H   0  0  0  0  0  0  0  0  0  0  0  0
    1.2630   16.3080   21.7630 H   0  0  0  0  0  0  0  0  0  0  0  0
    0.0630   15.2750   20.9950 H   0  0  0  0  0  0  0  0  0  0  0  0
    1.7530   14.7410   21.1180 H   0  0  0  0  0  0  0  0  0  0  0  0
    3.8520   19.2330   19.2040 H   0  0  0  0  0  0  0  0  0  0  0  0
    6.2010   19.9830   18.0930 H   0  0  0  0  0  0  0  0  0  0  0  0
    5.4580   22.2980   18.6610 H   0  0  0  0  0  0  0  0  0  0  0  0
    3.8350   21.8780   18.0990 H   0  0  0  0  0  0  0  0  0  0  0  0
    4.5480   21.0410   19.4870 H   0  0  0  0  0  0  0  0  0  0  0  0
    7.9590   21.0020   16.9640 H   0  0  0  0  0  0  0  0  0  0  0  0
    4.0150   21.4110   15.4000 H   0  0  0  0  0  0  0  0  0  0  0  0
    3.8090   22.3800   13.4150 H   0  0  0  0  0  0  0  0  0  0  0  0
    6.7310   23.2720   12.3720 H   0  0  0  0  0  0  0  0  0  0  0  0
    8.8650   22.0990   14.9810 H   0  0  0  0  0  0  0  0  0  0  0  0
  1  2  2  0  0  0  0
  1  6  1  0  0  0  0
  1 37  1  0  0  0  0
  2  3  1  0  0  0  0
  2 38  1  0  0  0  0
  3  4  2  0  0  0  0
  3 39  1  0  0  0  0
  4  5  1  0  0  0  0
  4  7  1  0  0  0  0
  5  6  2  0  0  0  0
  5 40  1  0  0  0  0
  6 41  1  0  0  0  0
  7  8  1  0  0  0  0
  7  9  2  0  0  0  0
  8 10  1  0  0  0  0
  8 11  1  0  0  0  0
 10 12  1  0  0  0  0
 10 42  1  0  0  0  0
 10 43  1  0  0  0  0
 11 13  1  0  0  0  0
 11 44  1  0  0  0  0
 11 45  1  0  0  0  0
 12 14  1  0  0  0  0
 12 46  1  0  0  0  0
 12 47  1  0  0  0  0
 13 14  1  0  0  0  0
 13 48  1  0  0  0  0
 13 49  1  0  0  0  0
 14 15  1  0  0  0  0
 15 16  2  0  0  0  0
 15 17  1  0  0  0  0
 17 18  2  0  0  0  0
 17 19  1  0  0  0  0
 18 21  1  0  0  0  0
 18 50  1  0  0  0  0
 19 20  2  0  0  0  0
 19 51  1  0  0  0  0
 20 22  1  0  0  0  0
 20 23  1  0  0  0  0
 21 22  2  0  0  0  0
 21 24  1  0  0  0  0
 22 52  1  0  0  0  0
 23 53  1  0  0  0  0
 23 54  1  0  0  0  0
 23 55  1  0  0  0  0
 24 25  1  0  0  0  0
 24 56  1  0  0  0  0
 25 26  2  0  0  0  0
 25 27  1  0  0  0  0
 27 28  1  0  0  0  0
 27 29  1  0  0  0  0
 27 57  1  0  0  0  0
 28 58  1  0  0  0  0
 28 59  1  0  0  0  0
 28 60  1  0  0  0  0
 29 30  2  0  0  0  0
 29 31  1  0  0  0  0
 30 36  1  0  0  0  0
 30 61  1  0  0  0  0
 31 32  2  0  0  0  0
 31 62  1  0  0  0  0
 32 33  1  0  0  0  0
 32 34  1  0  0  0  0
 33 63  1  0  0  0  0
 34 35  1  0  0  0  0
 34 36  2  0  0  0  0
 35 64  1  0  0  0  0
 36 65  1  0  0  0  0
M  END
> <rseq>
1

> <mseq>
463

> <S>
-6.98438

> <rmsd_refine>
1.756747

> <E_conf>
19.22547

> <E_score1>
-9.988776

> <E_refine>
-39.62852

> <E_score2>
-6.98438

>  <$File>
outputs/pdb_4j58_cleaned.pdb_2024_06_17__22_47_40_V2_BS398_MIN1_/SDF/sdf_db.sdf

> <Rec_index>
1

>  <PLIF_raw>
[24,1504,101,3,0.9]

> <FP:PLIF>
8

>  <PLIF_ligidx>
24

$$$$
427
  MOE2022           3D

 70 72  0  0  1  0  0  0  0  0999 V2000
    2.3520   16.6130   19.1220 O   0  0  0  0  0  0  0  0  0  0  0  0
    1.4250   16.8720   18.3550 C   0  0  0  0  0  0  0  0  0  0  0  0
    1.6250   17.8110   17.3730 N   0  0  0  0  0  0  0  0  0  0  0  0
    0.1200   16.2060   18.4100 C   0  0  0  0  0  0  0  0  0  0  0  0
   -0.9980   16.7210   17.7340 C   0  0  0  0  0  0  0  0  0  0  0  0
   -2.2160   16.0510   17.7630 C   0  0  0  0  0  0  0  0  0  0  0  0
   -0.0260   15.0090   19.1260 C   0  0  0  0  0  0  0  0  0  0  0  0
    2.9390   18.1420   16.8310 C   0  0  1  0  0  0  0  0  0  0  0  0
   -1.2430   14.3370   19.1430 C   0  0  0  0  0  0  0  0  0  0  0  0
   -2.3390   14.8570   18.4640 C   0  0  0  0  0  0  0  0  0  0  0  0
    2.9150   18.1170   15.3000 C   0  0  0  0  0  0  0  0  0  0  0  0
    2.4470   16.9870   14.6080 C   0  0  0  0  0  0  0  0  0  0  0  0
    2.0800   15.8530   15.2780 O   0  0  0  0  0  0  0  0  0  0  0  0
    2.3530   16.9620   13.2220 C   0  0  0  0  0  0  0  0  0  0  0  0
    2.7790   18.0710   12.5040 C   0  0  0  0  0  0  0  0  0  0  0  0
    3.4400   19.4660   17.4380 C   0  0  0  0  0  0  0  0  0  0  0  0
    2.6890   18.0120   11.1270 O   0  0  0  0  0  0  0  0  0  0  0  0
    3.2910   19.1940   13.1580 C   0  0  0  0  0  0  0  0  0  0  0  0
    4.5640   20.1220   16.6210 C   0  0  1  0  0  0  0  0  0  0  0  0
    3.3700   19.2140   14.5530 C   0  0  0  0  0  0  0  0  0  0  0  0
    3.7780   18.4550   10.2680 C   0  0  0  0  0  0  0  0  0  0  0  0
    3.9480   20.4370   15.2440 C   0  0  0  0  0  0  0  0  0  0  0  0
    4.2510   17.4080    9.2700 C   0  0  0  0  0  0  0  0  0  0  0  0
    5.1230   21.4080   17.2820 C   0  0  0  0  0  0  0  0  0  0  0  0
    4.3330   17.6790    8.0800 O   0  0  0  0  0  0  0  0  0  0  0  0
    4.6170   16.1540    9.7090 N   0  0  0  0  0  0  0  0  0  0  0  0
    4.3710   15.7710   11.0340 O   0  0  0  0  0  0  0  0  0  0  0  0
    6.3530   21.2690   18.2240 C   0  0  0  0  0  0  0  0  0  0  0  0
    6.6160   22.6520   18.8500 C   0  0  0  0  0  0  0  0  0  0  0  0
    7.6230   20.8750   17.4430 C   0  0  0  0  0  0  0  0  0  0  0  0
    5.1110   15.0810    8.8250 C   0  0  0  0  0  0  0  0  0  0  0  0
    6.1330   20.2580   19.3650 C   0  0  0  0  0  0  0  0  0  0  0  0
    3.9450   14.2850    8.2200 C   0  0  0  0  0  0  0  0  0  0  0  0
    6.1230   14.1540    9.5230 C   0  0  0  0  0  0  0  0  0  0  0  0
    0.8320   18.0280   16.7530 H   0  0  0  0  0  0  0  0  0  0  0  0
   -0.9290   17.6290   17.1930 H   0  0  0  0  0  0  0  0  0  0  0  0
   -3.0520   16.4510   17.2490 H   0  0  0  0  0  0  0  0  0  0  0  0
    0.8030   14.6010   19.6440 H   0  0  0  0  0  0  0  0  0  0  0  0
    3.6360   17.3710   17.1230 H   0  0  0  0  0  0  0  0  0  0  0  0
   -1.3420   13.4220   19.6670 H   0  0  0  0  0  0  0  0  0  0  0  0
   -3.2650   14.3430   18.4790 H   0  0  0  0  0  0  0  0  0  0  0  0
    1.7720   15.1630   14.6580 H   0  0  0  0  0  0  0  0  0  0  0  0
    1.9730   16.1090   12.7200 H   0  0  0  0  0  0  0  0  0  0  0  0
    2.6010   20.1620   17.5050 H   0  0  0  0  0  0  0  0  0  0  0  0
    3.7750   19.2560   18.4510 H   0  0  0  0  0  0  0  0  0  0  0  0
    3.6140   20.0320   12.5960 H   0  0  0  0  0  0  0  0  0  0  0  0
    5.3670   19.4030   16.4840 H   0  0  0  0  0  0  0  0  0  0  0  0
    3.4680   19.3530    9.7520 H   0  0  0  0  0  0  0  0  0  0  0  0
    4.6110   18.7330   10.8900 H   0  0  0  0  0  0  0  0  0  0  0  0
    3.1530   21.1760   15.3590 H   0  0  0  0  0  0  0  0  0  0  0  0
    4.7190   20.8690   14.6050 H   0  0  0  0  0  0  0  0  0  0  0  0
    5.4070   22.1040   16.4920 H   0  0  0  0  0  0  0  0  0  0  0  0
    4.3090   21.8850   17.8310 H   0  0  0  0  0  0  0  0  0  0  0  0
    3.6610   16.3580   11.3700 H   0  0  0  0  0  0  0  0  0  0  0  0
    7.4540   22.6000   19.5480 H   0  0  0  0  0  0  0  0  0  0  0  0
    6.8550   23.3790   18.0730 H   0  0  0  0  0  0  0  0  0  0  0  0
    5.7310   22.9930   19.3850 H   0  0  0  0  0  0  0  0  0  0  0  0
    8.4870   20.8690   18.1090 H   0  0  0  0  0  0  0  0  0  0  0  0
    7.5200   19.8800   17.0160 H   0  0  0  0  0  0  0  0  0  0  0  0
    7.8090   21.5860   16.6370 H   0  0  0  0  0  0  0  0  0  0  0  0
    5.6370   15.5490    8.0030 H   0  0  0  0  0  0  0  0  0  0  0  0
    6.9810   20.2740   20.0520 H   0  0  0  0  0  0  0  0  0  0  0  0
    5.2260   20.5070   19.9160 H   0  0  0  0  0  0  0  0  0  0  0  0
    6.0420   19.2500   18.9620 H   0  0  0  0  0  0  0  0  0  0  0  0
    3.2710   14.9480    7.6770 H   0  0  0  0  0  0  0  0  0  0  0  0
    4.3160   13.5330    7.5230 H   0  0  0  0  0  0  0  0  0  0  0  0
    3.3760   13.7810    9.0020 H   0  0  0  0  0  0  0  0  0  0  0  0
    5.6530   13.5900   10.3300 H   0  0  0  0  0  0  0  0  0  0  0  0
    6.5300   13.4370    8.8120 H   0  0  0  0  0  0  0  0  0  0  0  0
    6.9450   14.7320    9.9440 H   0  0  0  0  0  0  0  0  0  0  0  0
  1  2  2  0  0  0  0
  2  3  1  0  0  0  0
  2  4  1  0  0  0  0
  3  8  1  0  0  0  0
  3 35  1  0  0  0  0
  4  5  2  0  0  0  0
  4  7  1  0  0  0  0
  5  6  1  0  0  0  0
  5 36  1  0  0  0  0
  6 10  2  0  0  0  0
  6 37  1  0  0  0  0
  7  9  2  0  0  0  0
  7 38  1  0  0  0  0
  8 11  1  0  0  0  0
  8 16  1  0  0  0  0
  8 39  1  0  0  0  0
  9 10  1  0  0  0  0
  9 40  1  0  0  0  0
 10 41  1  0  0  0  0
 11 12  1  0  0  0  0
 11 20  2  0  0  0  0
 12 13  1  0  0  0  0
 12 14  2  0  0  0  0
 13 42  1  0  0  0  0
 14 15  1  0  0  0  0
 14 43  1  0  0  0  0
 15 17  1  0  0  0  0
 15 18  2  0  0  0  0
 16 19  1  0  0  0  0
 16 44  1  0  0  0  0
 16 45  1  0  0  0  0
 17 21  1  0  0  0  0
 18 20  1  0  0  0  0
 18 46  1  0  0  0  0
 19 22  1  0  0  0  0
 19 24  1  0  0  0  0
 19 47  1  0  0  0  0
 20 22  1  0  0  0  0
 21 23  1  0  0  0  0
 21 48  1  0  0  0  0
 21 49  1  0  0  0  0
 22 50  1  0  0  0  0
 22 51  1  0  0  0  0
 23 25  2  0  0  0  0
 23 26  1  0  0  0  0
 24 28  1  0  0  0  0
 24 52  1  0  0  0  0
 24 53  1  0  0  0  0
 26 27  1  0  0  0  0
 26 31  1  0  0  0  0
 27 54  1  0  0  0  0
 28 29  1  0  0  0  0
 28 30  1  0  0  0  0
 28 32  1  0  0  0  0
 29 55  1  0  0  0  0
 29 56  1  0  0  0  0
 29 57  1  0  0  0  0
 30 58  1  0  0  0  0
 30 59  1  0  0  0  0
 30 60  1  0  0  0  0
 31 33  1  0  0  0  0
 31 34  1  0  0  0  0
 31 61  1  0  0  0  0
 32 62  1  0  0  0  0
 32 63  1  0  0  0  0
 32 64  1  0  0  0  0
 33 65  1  0  0  0  0
 33 66  1  0  0  0  0
 33 67  1  0  0  0  0
 34 68  1  0  0  0  0
 34 69  1  0  0  0  0
 34 70  1  0  0  0  0
M  END
> <rseq>
1

> <mseq>
428

> <S>
-7.003897

> <rmsd_refine>
1.763789

> <E_conf>
-30.28708

> <E_score1>
-12.71648

> <E_refine>
-37.76606

> <E_score2>
-7.003897

>  <$File>
outputs/pdb_4j58_cleaned.pdb_2024_06_17__22_47_40_V2_BS398_MIN1_/SDF/sdf_db.sdf

> <Rec_index>
1

>  <PLIF_raw>
[[],[],[],[],[]]

>  <PLIF_ligidx>
[]

$$$$
428
  MOE2022           3D

 62 65  0  0  1  0  0  0  0  0999 V2000
    7.1300   20.9840   19.4250 C   0  0  0  0  0  0  0  0  0  0  0  0
    6.2930   19.9280   19.0830 C   0  0  0  0  0  0  0  0  0  0  0  0
    5.0170   20.1920   18.5890 C   0  0  0  0  0  0  0  0  0  0  0  0
    4.2380   19.1090   18.2060 O   0  0  0  0  0  0  0  0  0  0  0  0
    3.1250   19.1580   17.2480 C   0  0  1  0  0  0  0  0  0  0  0  0
    4.5620   21.5080   18.4680 C   0  0  0  0  0  0  0  0  0  0  0  0
    6.6900   22.2970   19.2850 C   0  0  0  0  0  0  0  0  0  0  0  0
    5.4060   22.5580   18.8120 C   0  0  0  0  0  0  0  0  0  0  0  0
    3.6220   19.4250   15.8240 C   0  0  0  0  0  0  0  0  0  0  0  0
    4.4370   20.3270   15.6310 O   0  0  0  0  0  0  0  0  0  0  0  0
    2.2510   17.8980   17.4020 C   0  0  2  0  0  0  0  0  0  0  0  0
    3.0990   18.7440   14.7760 N   0  0  0  0  0  0  0  0  0  0  0  0
    1.2720   17.7240   16.2190 C   0  0  2  0  0  0  0  0  0  0  0  0
    2.1630   17.6010   14.9500 C   0  0  1  0  0  0  0  0  0  0  0  0
    1.5600   17.9600   18.6390 O   0  0  0  0  0  0  0  0  0  0  0  0
    3.3720   19.1960   13.3920 C   0  0  0  0  0  0  0  0  0  0  0  0
    0.3650   18.8950   16.0980 N   0  0  0  0  0  0  0  0  0  0  0  0
    0.4520   16.4300   16.4350 C   0  0  0  0  0  0  0  0  0  0  0  0
   -0.6000   16.2730   15.5030 O   0  0  0  0  0  0  0  0  0  0  0  0
    1.3690   17.4310   13.7290 O   0  0  0  0  0  0  0  0  0  0  0  0
    1.4120   16.1730   12.9510 C   0  0  2  0  0  0  0  0  0  0  0  0
    2.8270   15.5280   12.8470 C   0  0  0  0  0  0  0  0  0  0  0  0
    0.8280   16.4490   11.5840 C   0  0  0  0  0  0  0  0  0  0  0  0
    0.0410   15.6960   11.0120 O   0  0  0  0  0  0  0  0  0  0  0  0
    3.2640   15.0380   11.4420 C   0  0  2  0  0  0  0  0  0  0  0  0
    1.5090   17.3640   10.8830 O   0  0  0  0  0  0  0  0  0  0  0  0
    2.4060   16.8890    9.8590 C   0  0  1  0  0  0  0  0  0  0  0  0
    4.3860   14.1930   11.6080 O   0  0  0  0  0  0  0  0  0  0  0  0
    2.8460   18.0530    8.9610 C   0  0  0  0  0  0  0  0  0  0  0  0
    3.9200   17.6380    7.9760 C   0  0  0  0  0  0  0  0  0  0  0  0
    3.6380   16.2100   10.4920 C   0  0  2  0  0  0  0  0  0  0  0  0
    4.0330   18.2520    6.9390 O   0  0  0  0  0  0  0  0  0  0  0  0
    4.8050   16.5160    8.2970 C   0  0  0  0  0  0  0  0  0  0  0  0
    5.7320   16.1570    7.5790 O   0  0  0  0  0  0  0  0  0  0  0  0
    4.5960   15.8090    9.4530 N   0  0  0  0  0  0  0  0  0  0  0  0
    8.1070   20.7910   19.7820 H   0  0  0  0  0  0  0  0  0  0  0  0
    6.6310   18.9320   19.1850 H   0  0  0  0  0  0  0  0  0  0  0  0
    2.4990   19.9940   17.5260 H   0  0  0  0  0  0  0  0  0  0  0  0
    3.5880   21.7190   18.1100 H   0  0  0  0  0  0  0  0  0  0  0  0
    7.3340   23.0980   19.5400 H   0  0  0  0  0  0  0  0  0  0  0  0
    5.0740   23.5590   18.7100 H   0  0  0  0  0  0  0  0  0  0  0  0
    2.9200   17.0360   17.4280 H   0  0  0  0  0  0  0  0  0  0  0  0
    2.7570   16.7070   15.0780 H   0  0  0  0  0  0  0  0  0  0  0  0
    2.1660   18.2830   19.3130 H   0  0  0  0  0  0  0  0  0  0  0  0
    4.1420   19.9510   13.3250 H   0  0  0  0  0  0  0  0  0  0  0  0
    3.6890   18.3810   12.7610 H   0  0  0  0  0  0  0  0  0  0  0  0
    2.4850   19.6230   12.9430 H   0  0  0  0  0  0  0  0  0  0  0  0
    0.8990   19.7310   15.9110 H   0  0  0  0  0  0  0  0  0  0  0  0
   -0.1550   19.0070   16.9580 H   0  0  0  0  0  0  0  0  0  0  0  0
    1.1160   15.5730   16.3620 H   0  0  0  0  0  0  0  0  0  0  0  0
    0.0060   16.4380   17.4300 H   0  0  0  0  0  0  0  0  0  0  0  0
   -1.0880   17.1010   15.4620 H   0  0  0  0  0  0  0  0  0  0  0  0
    0.7600   15.4690   13.4490 H   0  0  0  0  0  0  0  0  0  0  0  0
    3.5810   16.2280   13.1930 H   0  0  0  0  0  0  0  0  0  0  0  0
    2.8380   14.6760   13.5300 H   0  0  0  0  0  0  0  0  0  0  0  0
    2.4720   14.4380   10.9910 H   0  0  0  0  0  0  0  0  0  0  0  0
    1.8690   16.1660    9.2410 H   0  0  0  0  0  0  0  0  0  0  0  0
    4.1420   13.4390   12.1570 H   0  0  0  0  0  0  0  0  0  0  0  0
    1.9910   18.4620    8.4400 H   0  0  0  0  0  0  0  0  0  0  0  0
    3.2300   18.8520    9.5800 H   0  0  0  0  0  0  0  0  0  0  0  0
    4.1530   16.9610   11.0900 H   0  0  0  0  0  0  0  0  0  0  0  0
    5.2400   15.0330    9.6780 H   0  0  0  0  0  0  0  0  0  0  0  0
  1  2  1  0  0  0  0
  1  7  2  0  0  0  0
  1 36  1  0  0  0  0
  2  3  2  0  0  0  0
  2 37  1  0  0  0  0
  3  4  1  0  0  0  0
  3  6  1  0  0  0  0
  4  5  1  0  0  0  0
  5  9  1  0  0  0  0
  5 11  1  0  0  0  0
  5 38  1  0  0  0  0
  6  8  2  0  0  0  0
  6 39  1  0  0  0  0
  7  8  1  0  0  0  0
  7 40  1  0  0  0  0
  8 41  1  0  0  0  0
  9 10  2  0  0  0  0
  9 12  1  0  0  0  0
 11 13  1  0  0  0  0
 11 15  1  0  0  0  0
 11 42  1  0  0  0  0
 12 14  1  0  0  0  0
 12 16  1  0  0  0  0
 13 14  1  0  0  0  0
 13 17  1  0  0  0  0
 13 18  1  0  0  0  0
 14 20  1  0  0  0  0
 14 43  1  0  0  0  0
 15 44  1  0  0  0  0
 16 45  1  0  0  0  0
 16 46  1  0  0  0  0
 16 47  1  0  0  0  0
 17 48  1  0  0  0  0
 17 49  1  0  0  0  0
 18 19  1  0  0  0  0
 18 50  1  0  0  0  0
 18 51  1  0  0  0  0
 19 52  1  0  0  0  0
 20 21  1  0  0  0  0
 21 22  1  0  0  0  0
 21 23  1  0  0  0  0
 21 53  1  0  0  0  0
 22 25  1  0  0  0  0
 22 54  1  0  0  0  0
 22 55  1  0  0  0  0
 23 24  2  0  0  0  0
 23 26  1  0  0  0  0
 25 28  1  0  0  0  0
 25 31  1  0  0  0  0
 25 56  1  0  0  0  0
 26 27  1  0  0  0  0
 27 29  1  0  0  0  0
 27 31  1  0  0  0  0
 27 57  1  0  0  0  0
 28 58  1  0  0  0  0
 29 30  1  0  0  0  0
 29 59  1  0  0  0  0
 29 60  1  0  0  0  0
 30 32  2  0  0  0  0
 30 33  1  0  0  0  0
 31 35  1  0  0  0  0
 31 61  1  0  0  0  0
 33 34  2  0  0  0  0
 33 35  1  0  0  0  0
 35 62  1  0  0  0  0
M  END
> <rseq>
1

> <mseq>
429

> <S>
-6.069236

> <rmsd_refine>
1.597592

> <E_conf>
180.6621

> <E_score1>
-11.43518

> <E_refine>
-33.95515

> <E_score2>
-6.069236

>  <$File>
outputs/pdb_4j58_cleaned.pdb_2024_06_17__22_47_40_V2_BS398_MIN1_/SDF/sdf_db.sdf

> <Rec_index>
1

>  <PLIF_raw>
[28,1056,70,3,2]

> <FP:PLIF>
3 4

>  <PLIF_ligidx>
[28,28]

$$$$
429
  MOE2022           3D

 60 63  0  0  1  0  0  0  0  0999 V2000
    3.0640   17.3120   19.0560 O   0  0  0  0  0  0  0  0  0  0  0  0
    2.1050   17.0790   18.3160 C   0  0  0  0  0  0  0  0  0  0  0  0
    0.8850   16.4090   18.7540 C   0  0  0  0  0  0  0  0  0  0  0  0
    2.1970   17.4950   16.9830 N   0  0  0  0  0  0  0  0  0  0  0  0
   -0.0730   16.0220   17.8020 C   0  0  0  0  0  0  0  0  0  0  0  0
    1.2430   17.0600   16.0100 C   0  0  0  0  0  0  0  0  0  0  0  0
   -1.2890   15.4180   18.1590 C   0  0  0  0  0  0  0  0  0  0  0  0
    0.1870   16.2650   16.4570 N   0  0  0  0  0  0  0  0  0  0  0  0
    1.3420   17.3970   14.6990 C   0  0  0  0  0  0  0  0  0  0  0  0
    0.5770   16.1490   20.1030 C   0  0  0  0  0  0  0  0  0  0  0  0
    2.4070   18.2390   14.2460 C   0  0  0  0  0  0  0  0  0  0  0  0
   -2.3050   14.9920   17.1140 C   0  0  0  0  0  0  0  0  0  0  0  0
    3.2840   18.4430   16.5810 C   0  0  2  0  0  0  0  0  0  0  0  0
    3.1490   19.6860   17.3330 O   0  0  0  0  0  0  0  0  0  0  0  0
    2.4000   18.4860   12.8870 O   0  0  0  0  0  0  0  0  0  0  0  0
    3.3380   18.7420   15.0850 C   0  0  0  0  0  0  0  0  0  0  0  0
    3.2230   19.3820   12.1120 C   0  0  0  0  0  0  0  0  0  0  0  0
    4.2840   20.6100   17.3490 C   0  0  0  0  0  0  0  0  0  0  0  0
    5.4350   20.2010   18.2790 C   0  0  1  0  0  0  0  0  0  0  0  0
    3.4890   18.8200   10.7150 C   0  0  0  0  0  0  0  0  0  0  0  0
    6.1160   21.5260   18.6680 C   0  0  2  0  0  0  0  0  0  0  0  0
    4.2120   17.5740   10.7870 O   0  0  0  0  0  0  0  0  0  0  0  0
    4.4690   16.8880    9.5300 C   0  0  0  0  0  0  0  0  0  0  0  0
    5.2420   22.6460   18.0820 C   0  0  1  0  0  0  0  0  0  0  0  0
    5.3380   15.6620    9.7140 C   0  0  0  0  0  0  0  0  0  0  0  0
    6.5230   15.8440   10.0700 O   0  5  0  0  0  0  0  0  0  0  0  0
    3.8800   21.9900   17.8550 C   0  0  1  0  0  0  0  0  0  0  0  0
    4.8310   14.5430    9.4810 O   0  0  0  0  0  0  0  0  0  0  0  0
   -1.5720   15.2360   19.5080 C   0  0  0  0  0  0  0  0  0  0  0  0
    1.4690   16.4080   21.0990 O   0  0  0  0  0  0  0  0  0  0  0  0
   -0.6500   15.6130   20.4790 C   0  0  0  0  0  0  0  0  0  0  0  0
    5.1400   23.7650   18.9440 O   0  0  0  0  0  0  0  0  0  0  0  0
    7.4420   21.5920   18.1770 O   0  0  0  0  0  0  0  0  0  0  0  0
    3.1080   22.6890   16.8980 O   0  0  0  0  0  0  0  0  0  0  0  0
    5.0010   19.5440   19.4540 O   0  0  0  0  0  0  0  0  0  0  0  0
   -0.5040   15.9420   15.7620 H   0  0  0  0  0  0  0  0  0  0  0  0
    0.6330   17.0480   13.9940 H   0  0  0  0  0  0  0  0  0  0  0  0
   -2.7140   15.8670   16.6090 H   0  0  0  0  0  0  0  0  0  0  0  0
   -1.8420   14.3430   16.3710 H   0  0  0  0  0  0  0  0  0  0  0  0
   -3.1310   14.4450   17.5680 H   0  0  0  0  0  0  0  0  0  0  0  0
    4.2340   18.0110   16.8610 H   0  0  0  0  0  0  0  0  0  0  0  0
    4.1290   19.3500   14.7430 H   0  0  0  0  0  0  0  0  0  0  0  0
    2.7070   20.3380   12.0250 H   0  0  0  0  0  0  0  0  0  0  0  0
    4.1730   19.5380   12.6150 H   0  0  0  0  0  0  0  0  0  0  0  0
    4.6640   20.7120   16.3330 H   0  0  0  0  0  0  0  0  0  0  0  0
    6.1260   19.5530   17.7410 H   0  0  0  0  0  0  0  0  0  0  0  0
    2.5390   18.6460   10.2090 H   0  0  0  0  0  0  0  0  0  0  0  0
    4.0820   19.5340   10.1430 H   0  0  0  0  0  0  0  0  0  0  0  0
    6.1390   21.6200   19.7550 H   0  0  0  0  0  0  0  0  0  0  0  0
    3.5200   16.6190    9.0880 H   0  0  0  0  0  0  0  0  0  0  0  0
    4.9590   17.5860    8.8660 H   0  0  0  0  0  0  0  0  0  0  0  0
    5.6540   22.9600   17.1210 H   0  0  0  0  0  0  0  0  0  0  0  0
    3.3390   21.9010   18.7990 H   0  0  0  0  0  0  0  0  0  0  0  0
   -2.4960   14.8110   19.8050 H   0  0  0  0  0  0  0  0  0  0  0  0
    2.2940   16.7780   20.7180 H   0  0  0  0  0  0  0  0  0  0  0  0
   -0.8910   15.4980   21.5000 H   0  0  0  0  0  0  0  0  0  0  0  0
    4.5970   24.4230   18.5010 H   0  0  0  0  0  0  0  0  0  0  0  0
    7.9960   21.0040   18.7000 H   0  0  0  0  0  0  0  0  0  0  0  0
    2.2580   22.2470   16.8180 H   0  0  0  0  0  0  0  0  0  0  0  0
    4.3160   18.9090   19.2170 H   0  0  0  0  0  0  0  0  0  0  0  0
  1  2  2  0  0  0  0
  2  3  1  0  0  0  0
  2  4  1  0  0  0  0
  3  5  1  0  0  0  0
  3 10  2  0  0  0  0
  4  6  1  0  0  0  0
  4 13  1  0  0  0  0
  5  7  2  0  0  0  0
  5  8  1  0  0  0  0
  6  8  1  0  0  0  0
  6  9  2  0  0  0  0
  7 12  1  0  0  0  0
  7 29  1  0  0  0  0
  8 36  1  0  0  0  0
  9 11  1  0  0  0  0
  9 37  1  0  0  0  0
 10 30  1  0  0  0  0
 10 31  1  0  0  0  0
 11 15  1  0  0  0  0
 11 16  2  0  0  0  0
 12 38  1  0  0  0  0
 12 39  1  0  0  0  0
 12 40  1  0  0  0  0
 13 14  1  0  0  0  0
 13 16  1  0  0  0  0
 13 41  1  0  0  0  0
 14 18  1  0  0  0  0
 15 17  1  0  0  0  0
 16 42  1  0  0  0  0
 17 20  1  0  0  0  0
 17 43  1  0  0  0  0
 17 44  1  0  0  0  0
 18 19  1  0  0  0  0
 18 27  1  0  0  0  0
 18 45  1  0  0  0  0
 19 21  1  0  0  0  0
 19 35  1  0  0  0  0
 19 46  1  0  0  0  0
 20 22  1  0  0  0  0
 20 47  1  0  0  0  0
 20 48  1  0  0  0  0
 21 24  1  0  0  0  0
 21 33  1  0  0  0  0
 21 49  1  0  0  0  0
 22 23  1  0  0  0  0
 23 25  1  0  0  0  0
 23 50  1  0  0  0  0
 23 51  1  0  0  0  0
 24 27  1  0  0  0  0
 24 32  1  0  0  0  0
 24 52  1  0  0  0  0
 25 26  1  0  0  0  0
 25 28  2  0  0  0  0
 27 34  1  0  0  0  0
 27 53  1  0  0  0  0
 29 31  2  0  0  0  0
 29 54  1  0  0  0  0
 30 55  1  0  0  0  0
 31 56  1  0  0  0  0
 32 57  1  0  0  0  0
 33 58  1  0  0  0  0
 34 59  1  0  0  0  0
 35 60  1  0  0  0  0
M  CHG  1  26  -1
M  END
> <rseq>
1

> <mseq>
430

> <S>
-6.801579

> <rmsd_refine>
1.270144

> <E_conf>
-73.50877

> <E_score1>
-12.47191

> <E_refine>
-40.70402

> <E_score2>
-6.801579

>  <$File>
outputs/pdb_4j58_cleaned.pdb_2024_06_17__22_47_40_V2_BS398_MIN1_/SDF/sdf_db.sdf

> <Rec_index>
1

>  <PLIF_raw>
[[26,32,26,2,4,6,8,5,3,3,10,31,29,7,5],[823,1872,823,954,954,954,954,954,954,1519,1519,1519,1519,1519,1519],[54,125,54,62,62,62,62,62,62,102,102,102,102,102,102],[2,2,7,10,10,10,10,10,10,10,10,10,10,10,10],[3.7,0.6,4.515376661,1.1,1.1,1.1,1.1,1.1,1.1,0.9,0.9,0.9,0.9,0.9,0.9]]

> <FP:PLIF>
6 19 1 16 21 30 22 29

>  <PLIF_ligidx>
[26,26,26,26,[2,4,6,8,5,3],[2,4,6,8,5,3],[3,10,31,29,7,5],32]

$$$$
430
  MOE2022           3D

 59 62  0  0  1  0  0  0  0  0999 V2000
    3.3180   17.5370   19.4960 O   0  0  0  0  0  0  0  0  0  0  0  0
    2.3410   17.0630   18.9000 C   0  0  0  0  0  0  0  0  0  0  0  0
    1.2380   16.4000   19.5440 C   0  0  0  0  0  0  0  0  0  0  0  0
    2.2870   17.1650   17.5070 N   0  0  0  0  0  0  0  0  0  0  0  0
    0.2060   15.9310   18.7870 C   0  0  0  0  0  0  0  0  0  0  0  0
    1.2860   16.4820   16.7910 C   0  0  0  0  0  0  0  0  0  0  0  0
    0.2640   15.9750   17.4140 N   0  0  0  0  0  0  0  0  0  0  0  0
    1.4620   16.2860   15.3580 C   0  0  0  0  0  0  0  0  0  0  0  0
    3.2590   18.0330   16.7830 C   0  0  0  0  0  0  0  0  0  0  0  0
    1.2590   16.2250   21.0530 C   0  0  0  0  0  0  0  0  0  0  0  0
   -1.0250   15.2610   19.3650 C   0  0  0  0  0  0  0  0  0  0  0  0
    2.6410   19.2910   16.1390 C   0  0  1  0  0  0  0  0  0  0  0  0
    2.4360   20.4400   17.1330 C   0  0  0  0  0  0  0  0  0  0  0  0
    0.5110   16.7310   14.4260 C   0  0  0  0  0  0  0  0  0  0  0  0
    3.5750   19.8990   15.1030 C   0  0  0  0  0  0  0  0  0  0  0  0
    0.6890   16.4870   13.0680 C   0  0  0  0  0  0  0  0  0  0  0  0
    1.8170   15.7880   12.6350 C   0  0  0  0  0  0  0  0  0  0  0  0
    3.8160   19.3510   14.0300 O   0  0  0  0  0  0  0  0  0  0  0  0
    2.5840   15.5840   14.9000 C   0  0  0  0  0  0  0  0  0  0  0  0
    3.5280   21.4790   16.8190 C   0  0  2  0  0  0  0  0  0  0  0  0
    4.0680   21.0730   15.5160 N   0  0  0  0  0  0  0  0  0  0  0  0
    1.9690   15.5710   11.2780 O   0  0  0  0  0  0  0  0  0  0  0  0
    4.9450   21.9180   14.7050 C   0  0  0  0  0  0  0  0  0  0  0  0
    3.1060   14.9810   10.7720 C   0  0  0  0  0  0  0  0  0  0  0  0
    2.7650   15.3280   13.5520 C   0  0  0  0  0  0  0  0  0  0  0  0
    3.2130   13.5890   10.7640 C   0  0  0  0  0  0  0  0  0  0  0  0
    4.1410   15.7930   10.3170 C   0  0  0  0  0  0  0  0  0  0  0  0
    5.3090   15.1800    9.8730 C   0  0  0  0  0  0  0  0  0  0  0  0
    6.3410   15.9460    9.4290 O   0  0  0  0  0  0  0  0  0  0  0  0
    4.3930   12.9980   10.3150 C   0  0  0  0  0  0  0  0  0  0  0  0
    5.4490   13.7920    9.8730 C   0  0  0  0  0  0  0  0  0  0  0  0
    4.6010   21.6270   17.9350 C   0  0  0  0  0  0  0  0  0  0  0  0
    5.2650   20.4830   18.1820 F   0  0  0  0  0  0  0  0  0  0  0  0
    5.5310   22.5490   17.6330 F   0  0  0  0  0  0  0  0  0  0  0  0
    4.0680   22.0220   19.1020 F   0  0  0  0  0  0  0  0  0  0  0  0
    4.0720   18.3450   17.4220 H   0  0  0  0  0  0  0  0  0  0  0  0
    3.7690   17.4660   16.0190 H   0  0  0  0  0  0  0  0  0  0  0  0
    0.5220   16.8560   21.5300 H   0  0  0  0  0  0  0  0  0  0  0  0
    1.0440   15.2020   21.3230 H   0  0  0  0  0  0  0  0  0  0  0  0
    2.2240   16.4490   21.4820 H   0  0  0  0  0  0  0  0  0  0  0  0
   -1.2960   15.6540   20.3340 H   0  0  0  0  0  0  0  0  0  0  0  0
   -1.8840   15.3990   18.7220 H   0  0  0  0  0  0  0  0  0  0  0  0
   -0.8710   14.1960   19.4660 H   0  0  0  0  0  0  0  0  0  0  0  0
    1.6950   19.0380   15.6630 H   0  0  0  0  0  0  0  0  0  0  0  0
    1.4600   20.8930   16.9550 H   0  0  0  0  0  0  0  0  0  0  0  0
    2.4820   20.0820   18.1570 H   0  0  0  0  0  0  0  0  0  0  0  0
   -0.3480   17.2530   14.7600 H   0  0  0  0  0  0  0  0  0  0  0  0
   -0.0280   16.8270   12.3650 H   0  0  0  0  0  0  0  0  0  0  0  0
    3.3030   15.2420   15.5970 H   0  0  0  0  0  0  0  0  0  0  0  0
    3.0560   22.4470   16.7110 H   0  0  0  0  0  0  0  0  0  0  0  0
    4.6090   22.9460   14.7080 H   0  0  0  0  0  0  0  0  0  0  0  0
    5.9590   21.9040   15.0790 H   0  0  0  0  0  0  0  0  0  0  0  0
    4.9760   21.5970   13.6720 H   0  0  0  0  0  0  0  0  0  0  0  0
    3.6150   14.7830   13.2370 H   0  0  0  0  0  0  0  0  0  0  0  0
    2.4110   12.9890   11.1110 H   0  0  0  0  0  0  0  0  0  0  0  0
    4.0440   16.8480   10.3210 H   0  0  0  0  0  0  0  0  0  0  0  0
    6.0830   16.8870    9.3590 H   0  0  0  0  0  0  0  0  0  0  0  0
    4.4890   11.9440   10.3130 H   0  0  0  0  0  0  0  0  0  0  0  0
    6.3500   13.3460    9.5370 H   0  0  0  0  0  0  0  0  0  0  0  0
  1  2  2  0  0  0  0
  2  3  1  0  0  0  0
  2  4  1  0  0  0  0
  3  5  2  0  0  0  0
  3 10  1  0  0  0  0
  4  6  1  0  0  0  0
  4  9  1  0  0  0  0
  5  7  1  0  0  0  0
  5 11  1  0  0  0  0
  6  7  2  0  0  0  0
  6  8  1  0  0  0  0
  8 14  1  0  0  0  0
  8 19  2  0  0  0  0
  9 12  1  0  0  0  0
  9 36  1  0  0  0  0
  9 37  1  0  0  0  0
 10 38  1  0  0  0  0
 10 39  1  0  0  0  0
 10 40  1  0  0  0  0
 11 41  1  0  0  0  0
 11 42  1  0  0  0  0
 11 43  1  0  0  0  0
 12 13  1  0  0  0  0
 12 15  1  0  0  0  0
 12 44  1  0  0  0  0
 13 20  1  0  0  0  0
 13 45  1  0  0  0  0
 13 46  1  0  0  0  0
 14 16  2  0  0  0  0
 14 47  1  0  0  0  0
 15 18  2  0  0  0  0
 15 21  1  0  0  0  0
 16 17  1  0  0  0  0
 16 48  1  0  0  0  0
 17 22  1  0  0  0  0
 17 25  2  0  0  0  0
 19 25  1  0  0  0  0
 19 49  1  0  0  0  0
 20 21  1  0  0  0  0
 20 32  1  0  0  0  0
 20 50  1  0  0  0  0
 21 23  1  0  0  0  0
 22 24  1  0  0  0  0
 23 51  1  0  0  0  0
 23 52  1  0  0  0  0
 23 53  1  0  0  0  0
 24 26  2  0  0  0  0
 24 27  1  0  0  0  0
 25 54  1  0  0  0  0
 26 30  1  0  0  0  0
 26 55  1  0  0  0  0
 27 28  2  0  0  0  0
 27 56  1  0  0  0  0
 28 29  1  0  0  0  0
 28 31  1  0  0  0  0
 29 57  1  0  0  0  0
 30 31  2  0  0  0  0
 30 58  1  0  0  0  0
 31 59  1  0  0  0  0
 32 33  1  0  0  0  0
 32 34  1  0  0  0  0
 32 35  1  0  0  0  0
M  END
> <rseq>
1

> <mseq>
431

> <S>
-6.564954

> <rmsd_refine>
1.609617

> <E_conf>
16.34863

> <E_score1>
-10.10584

> <E_refine>
-32.88012

> <E_score2>
-6.564954

>  <$File>
outputs/pdb_4j58_cleaned.pdb_2024_06_17__22_47_40_V2_BS398_MIN1_/SDF/sdf_db.sdf

> <Rec_index>
1

>  <PLIF_raw>
[[29,2,4,6,7,5,3],[2222,954,954,954,954,954,954],[148,62,62,62,62,62,62],[3,10,10,10,10,10,10],[0.6,1.3,1.3,1.3,1.3,1.3,1.3]]

> <FP:PLIF>
21 30 39

>  <PLIF_ligidx>
[[2,4,6,7,5,3],[2,4,6,7,5,3],29]

$$$$
431
  MOE2022           3D

 61 64  0  0  1  0  0  0  0  0999 V2000
    7.1180   20.9800   19.4250 C   0  0  0  0  0  0  0  0  0  0  0  0
    6.2820   19.9240   19.0800 C   0  0  0  0  0  0  0  0  0  0  0  0
    5.0080   20.1890   18.5780 C   0  0  0  0  0  0  0  0  0  0  0  0
    4.2300   19.1070   18.1940 O   0  0  0  0  0  0  0  0  0  0  0  0
    3.1170   19.1540   17.2360 C   0  0  1  0  0  0  0  0  0  0  0  0
    4.5560   21.5060   18.4530 C   0  0  0  0  0  0  0  0  0  0  0  0
    6.6810   22.2930   19.2820 C   0  0  0  0  0  0  0  0  0  0  0  0
    5.4000   22.5550   18.8020 C   0  0  0  0  0  0  0  0  0  0  0  0
    3.6150   19.4160   15.8110 C   0  0  0  0  0  0  0  0  0  0  0  0
    4.4260   20.3210   15.6160 O   0  0  0  0  0  0  0  0  0  0  0  0
    2.2400   17.8970   17.3940 C   0  0  2  0  0  0  0  0  0  0  0  0
    3.0960   18.7270   14.7660 N   0  0  0  0  0  0  0  0  0  0  0  0
    1.2660   17.7160   16.2080 C   0  0  2  0  0  0  0  0  0  0  0  0
    2.1620   17.5840   14.9450 C   0  0  1  0  0  0  0  0  0  0  0  0
    1.5450   17.9680   18.6280 O   0  0  0  0  0  0  0  0  0  0  0  0
    3.3710   19.1710   13.3800 C   0  0  0  0  0  0  0  0  0  0  0  0
    0.3620   18.8890   16.0750 N   0  0  0  0  0  0  0  0  0  0  0  0
    0.4400   16.4260   16.4290 C   0  0  0  0  0  0  0  0  0  0  0  0
   -0.6130   16.2710   15.4970 O   0  0  0  0  0  0  0  0  0  0  0  0
    1.3760   17.4000   13.7200 O   0  0  0  0  0  0  0  0  0  0  0  0
    1.4150   16.1280   12.9650 C   0  0  2  0  0  0  0  0  0  0  0  0
    2.8340   15.4940   12.8500 C   0  0  0  0  0  0  0  0  0  0  0  0
    0.8060   16.3740   11.6030 C   0  0  0  0  0  0  0  0  0  0  0  0
    0.0330   15.5950   11.0470 O   0  0  0  0  0  0  0  0  0  0  0  0
    3.2700   15.0190   11.4400 C   0  0  2  0  0  0  0  0  0  0  0  0
    1.4510   17.3010   10.8820 O   0  0  0  0  0  0  0  0  0  0  0  0
    2.3580   16.8450    9.8580 C   0  0  1  0  0  0  0  0  0  0  0  0
    4.4170   14.2090   11.5870 O   0  0  0  0  0  0  0  0  0  0  0  0
    2.7810   18.0190    8.9680 C   0  0  0  0  0  0  0  0  0  0  0  0
    3.8820   17.6350    8.0030 C   0  0  0  0  0  0  0  0  0  0  0  0
    3.6040   16.1990   10.4910 C   0  0  2  0  0  0  0  0  0  0  0  0
    4.0190   18.2760    6.9850 O   0  0  0  0  0  0  0  0  0  0  0  0
    4.7600   16.5100    8.3150 C   0  0  0  0  0  0  0  0  0  0  0  0
    5.6810   16.1460    7.6030 O   0  0  0  0  0  0  0  0  0  0  0  0
    4.5520   15.8030    9.4510 O   0  0  0  0  0  0  0  0  0  0  0  0
    8.0930   20.7850   19.7880 H   0  0  0  0  0  0  0  0  0  0  0  0
    6.6180   18.9280   19.1840 H   0  0  0  0  0  0  0  0  0  0  0  0
    2.4930   19.9920   17.5110 H   0  0  0  0  0  0  0  0  0  0  0  0
    3.5840   21.7180   18.0900 H   0  0  0  0  0  0  0  0  0  0  0  0
    7.3240   23.0940   19.5390 H   0  0  0  0  0  0  0  0  0  0  0  0
    5.0690   23.5560   18.6970 H   0  0  0  0  0  0  0  0  0  0  0  0
    2.9070   17.0340   17.4290 H   0  0  0  0  0  0  0  0  0  0  0  0
    2.7580   16.6920   15.0820 H   0  0  0  0  0  0  0  0  0  0  0  0
    2.1490   18.2910   19.3030 H   0  0  0  0  0  0  0  0  0  0  0  0
    4.1360   19.9310   13.3110 H   0  0  0  0  0  0  0  0  0  0  0  0
    3.6970   18.3530   12.7570 H   0  0  0  0  0  0  0  0  0  0  0  0
    2.4830   19.5890   12.9250 H   0  0  0  0  0  0  0  0  0  0  0  0
    0.8990   19.7230   15.8850 H   0  0  0  0  0  0  0  0  0  0  0  0
   -0.1630   19.0080   16.9310 H   0  0  0  0  0  0  0  0  0  0  0  0
    1.1010   15.5660   16.3590 H   0  0  0  0  0  0  0  0  0  0  0  0
   -0.0050   16.4400   17.4240 H   0  0  0  0  0  0  0  0  0  0  0  0
   -1.0970   17.1010   15.4550 H   0  0  0  0  0  0  0  0  0  0  0  0
    0.7780   15.4270   13.4870 H   0  0  0  0  0  0  0  0  0  0  0  0
    3.5840   16.1970   13.1990 H   0  0  0  0  0  0  0  0  0  0  0  0
    2.8540   14.6360   13.5240 H   0  0  0  0  0  0  0  0  0  0  0  0
    2.4900   14.3990   10.9950 H   0  0  0  0  0  0  0  0  0  0  0  0
    1.8380   16.1100    9.2400 H   0  0  0  0  0  0  0  0  0  0  0  0
    4.1990   13.4360   12.1200 H   0  0  0  0  0  0  0  0  0  0  0  0
    1.9240   18.4050    8.4310 H   0  0  0  0  0  0  0  0  0  0  0  0
    3.1320   18.8290    9.5920 H   0  0  0  0  0  0  0  0  0  0  0  0
    4.1190   16.9620   11.0740 H   0  0  0  0  0  0  0  0  0  0  0  0
  1  2  1  0  0  0  0
  1  7  2  0  0  0  0
  1 36  1  0  0  0  0
  2  3  2  0  0  0  0
  2 37  1  0  0  0  0
  3  4  1  0  0  0  0
  3  6  1  0  0  0  0
  4  5  1  0  0  0  0
  5  9  1  0  0  0  0
  5 11  1  0  0  0  0
  5 38  1  0  0  0  0
  6  8  2  0  0  0  0
  6 39  1  0  0  0  0
  7  8  1  0  0  0  0
  7 40  1  0  0  0  0
  8 41  1  0  0  0  0
  9 10  2  0  0  0  0
  9 12  1  0  0  0  0
 11 13  1  0  0  0  0
 11 15  1  0  0  0  0
 11 42  1  0  0  0  0
 12 14  1  0  0  0  0
 12 16  1  0  0  0  0
 13 14  1  0  0  0  0
 13 17  1  0  0  0  0
 13 18  1  0  0  0  0
 14 20  1  0  0  0  0
 14 43  1  0  0  0  0
 15 44  1  0  0  0  0
 16 45  1  0  0  0  0
 16 46  1  0  0  0  0
 16 47  1  0  0  0  0
 17 48  1  0  0  0  0
 17 49  1  0  0  0  0
 18 19  1  0  0  0  0
 18 50  1  0  0  0  0
 18 51  1  0  0  0  0
 19 52  1  0  0  0  0
 20 21  1  0  0  0  0
 21 22  1  0  0  0  0
 21 23  1  0  0  0  0
 21 53  1  0  0  0  0
 22 25  1  0  0  0  0
 22 54  1  0  0  0  0
 22 55  1  0  0  0  0
 23 24  2  0  0  0  0
 23 26  1  0  0  0  0
 25 28  1  0  0  0  0
 25 31  1  0  0  0  0
 25 56  1  0  0  0  0
 26 27  1  0  0  0  0
 27 29  1  0  0  0  0
 27 31  1  0  0  0  0
 27 57  1  0  0  0  0
 28 58  1  0  0  0  0
 29 30  1  0  0  0  0
 29 59  1  0  0  0  0
 29 60  1  0  0  0  0
 30 32  2  0  0  0  0
 30 33  1  0  0  0  0
 31 35  1  0  0  0  0
 31 61  1  0  0  0  0
 33 34  2  0  0  0  0
 33 35  1  0  0  0  0
M  END
> <rseq>
1

> <mseq>
432

> <S>
-6.031586

> <rmsd_refine>
1.611805

> <E_conf>
185.7531

> <E_score1>
-11.42716

> <E_refine>
-33.53904

> <E_score2>
-6.031586

>  <$File>
outputs/pdb_4j58_cleaned.pdb_2024_06_17__22_47_40_V2_BS398_MIN1_/SDF/sdf_db.sdf

> <Rec_index>
1

>  <PLIF_raw>
[28,1056,70,3,2.2]

> <FP:PLIF>
3 4

>  <PLIF_ligidx>
[28,28]

$$$$
432
  MOE2022           3D

 57 60  0  0  1  0  0  0  0  0999 V2000
    3.3670   17.2330   19.6040 O   0  0  0  0  0  0  0  0  0  0  0  0
    2.2970   16.8830   19.0960 C   0  0  0  0  0  0  0  0  0  0  0  0
    1.2190   16.2680   19.8240 C   0  0  0  0  0  0  0  0  0  0  0  0
    2.1050   17.0750   17.7250 N   0  0  0  0  0  0  0  0  0  0  0  0
    0.1080   15.8570   19.1470 C   0  0  0  0  0  0  0  0  0  0  0  0
    1.0540   16.3950   17.0800 C   0  0  0  0  0  0  0  0  0  0  0  0
    0.0700   15.9040   17.7750 N   0  0  0  0  0  0  0  0  0  0  0  0
    1.1310   16.1680   15.6410 C   0  0  0  0  0  0  0  0  0  0  0  0
    2.9950   17.9930   16.9390 C   0  0  0  0  0  0  0  0  0  0  0  0
    1.3610   16.0690   21.3220 C   0  0  0  0  0  0  0  0  0  0  0  0
   -1.1140   15.2450   19.8020 C   0  0  0  0  0  0  0  0  0  0  0  0
    3.1400   19.4430   17.4580 C   0  0  1  0  0  0  0  0  0  0  0  0
    4.4560   19.7160   18.2220 C   0  0  0  0  0  0  0  0  0  0  0  0
    0.0280   16.3990   14.8050 C   0  0  0  0  0  0  0  0  0  0  0  0
    3.2110   20.4910   16.3490 C   0  0  0  0  0  0  0  0  0  0  0  0
    0.1000   16.1120   13.4470 C   0  0  0  0  0  0  0  0  0  0  0  0
    1.2810   15.5950   12.9170 C   0  0  0  0  0  0  0  0  0  0  0  0
    2.5910   20.4370   15.2900 O   0  0  0  0  0  0  0  0  0  0  0  0
    2.3070   15.6380   15.0860 C   0  0  0  0  0  0  0  0  0  0  0  0
    4.6220   21.2270   18.0140 C   0  0  1  0  0  0  0  0  0  0  0  0
    2.3870   15.3490   13.7350 C   0  0  0  0  0  0  0  0  0  0  0  0
    6.0690   21.7100   18.2010 C   0  0  0  0  0  0  0  0  0  0  0  0
    6.3140   22.3440   19.2530 O   0  0  0  0  0  0  0  0  0  0  0  0
    6.8990   21.4370   17.3040 O   0  5  0  0  0  0  0  0  0  0  0  0
    4.0890   21.4290   16.6780 N   0  0  0  0  0  0  0  0  0  0  0  0
    1.3350   15.3380   11.5640 O   0  0  0  0  0  0  0  0  0  0  0  0
    2.5660   15.3590   10.9280 C   0  0  0  0  0  0  0  0  0  0  0  0
    3.1610   16.5820   10.6030 C   0  0  0  0  0  0  0  0  0  0  0  0
    2.4970   17.7600   10.8330 O   0  0  0  0  0  0  0  0  0  0  0  0
    3.2440   14.1640   10.6720 C   0  0  0  0  0  0  0  0  0  0  0  0
    4.4400   16.6210   10.0550 C   0  0  0  0  0  0  0  0  0  0  0  0
    5.1120   15.4170    9.8420 C   0  0  0  0  0  0  0  0  0  0  0  0
    2.6620   12.9610   10.9730 O   0  0  0  0  0  0  0  0  0  0  0  0
    6.3760   15.4530    9.3430 O   0  0  0  0  0  0  0  0  0  0  0  0
    4.5280   14.1830   10.1320 C   0  0  0  0  0  0  0  0  0  0  0  0
    3.9690   17.5520   16.8000 H   0  0  0  0  0  0  0  0  0  0  0  0
    2.6220   18.0750   15.9310 H   0  0  0  0  0  0  0  0  0  0  0  0
    0.6030   16.6150   21.8650 H   0  0  0  0  0  0  0  0  0  0  0  0
    1.2740   15.0240   21.5740 H   0  0  0  0  0  0  0  0  0  0  0  0
    2.3250   16.3810   21.6950 H   0  0  0  0  0  0  0  0  0  0  0  0
   -1.2040   15.4850   20.8510 H   0  0  0  0  0  0  0  0  0  0  0  0
   -2.0200   15.5960   19.3270 H   0  0  0  0  0  0  0  0  0  0  0  0
   -1.1050   14.1690   19.7030 H   0  0  0  0  0  0  0  0  0  0  0  0
    2.2790   19.6830   18.0800 H   0  0  0  0  0  0  0  0  0  0  0  0
    4.4040   19.4710   19.2800 H   0  0  0  0  0  0  0  0  0  0  0  0
    5.2860   19.1930   17.7460 H   0  0  0  0  0  0  0  0  0  0  0  0
   -0.8690   16.7900   15.2140 H   0  0  0  0  0  0  0  0  0  0  0  0
   -0.7340   16.2880   12.8170 H   0  0  0  0  0  0  0  0  0  0  0  0
    3.1410   15.4410   15.7080 H   0  0  0  0  0  0  0  0  0  0  0  0
    3.9810   21.7530   18.7230 H   0  0  0  0  0  0  0  0  0  0  0  0
    3.2810   14.9390   13.3430 H   0  0  0  0  0  0  0  0  0  0  0  0
    4.3490   22.2080   16.0920 H   0  0  0  0  0  0  0  0  0  0  0  0
    3.0220   18.5250   10.5280 H   0  0  0  0  0  0  0  0  0  0  0  0
    4.8970   17.5440    9.8100 H   0  0  0  0  0  0  0  0  0  0  0  0
    1.7770   13.1090   11.3630 H   0  0  0  0  0  0  0  0  0  0  0  0
    6.7180   14.5460    9.2150 H   0  0  0  0  0  0  0  0  0  0  0  0
    5.0500   13.2780    9.9540 H   0  0  0  0  0  0  0  0  0  0  0  0
  1  2  2  0  0  0  0
  2  3  1  0  0  0  0
  2  4  1  0  0  0  0
  3  5  2  0  0  0  0
  3 10  1  0  0  0  0
  4  6  1  0  0  0  0
  4  9  1  0  0  0  0
  5  7  1  0  0  0  0
  5 11  1  0  0  0  0
  6  7  2  0  0  0  0
  6  8  1  0  0  0  0
  8 14  1  0  0  0  0
  8 19  2  0  0  0  0
  9 12  1  0  0  0  0
  9 36  1  0  0  0  0
  9 37  1  0  0  0  0
 10 38  1  0  0  0  0
 10 39  1  0  0  0  0
 10 40  1  0  0  0  0
 11 41  1  0  0  0  0
 11 42  1  0  0  0  0
 11 43  1  0  0  0  0
 12 13  1  0  0  0  0
 12 15  1  0  0  0  0
 12 44  1  0  0  0  0
 13 20  1  0  0  0  0
 13 45  1  0  0  0  0
 13 46  1  0  0  0  0
 14 16  2  0  0  0  0
 14 47  1  0  0  0  0
 15 18  2  0  0  0  0
 15 25  1  0  0  0  0
 16 17  1  0  0  0  0
 16 48  1  0  0  0  0
 17 21  2  0  0  0  0
 17 26  1  0  0  0  0
 19 21  1  0  0  0  0
 19 49  1  0  0  0  0
 20 22  1  0  0  0  0
 20 25  1  0  0  0  0
 20 50  1  0  0  0  0
 21 51  1  0  0  0  0
 22 23  2  0  0  0  0
 22 24  1  0  0  0  0
 25 52  1  0  0  0  0
 26 27  1  0  0  0  0
 27 28  1  0  0  0  0
 27 30  2  0  0  0  0
 28 29  1  0  0  0  0
 28 31  2  0  0  0  0
 29 53  1  0  0  0  0
 30 33  1  0  0  0  0
 30 35  1  0  0  0  0
 31 32  1  0  0  0  0
 31 54  1  0  0  0  0
 32 34  1  0  0  0  0
 32 35  2  0  0  0  0
 33 55  1  0  0  0  0
 34 56  1  0  0  0  0
 35 57  1  0  0  0  0
M  CHG  1  24  -1
M  END
> <rseq>
1

> <mseq>
433

> <S>
-6.665847

> <rmsd_refine>
1.499141

> <E_conf>
-77.06562

> <E_score1>
-11.15771

> <E_refine>
-35.8582

> <E_score2>
-6.665847

>  <$File>
outputs/pdb_4j58_cleaned.pdb_2024_06_17__22_47_40_V2_BS398_MIN1_/SDF/sdf_db.sdf

> <Rec_index>
1

>  <PLIF_raw>
[[23,24,2,4,6,7,5,3,2,4,6,7,5,3],[1872,826,954,954,954,954,954,954,1519,1519,1519,1519,1519,1519],[125,54,62,62,62,62,62,62,102,102,102,102,102,102],[7,7,10,10,10,10,10,10,10,10,10,10,10,10],[2.824077573,0.5469140005,1,1,1,1,1,1,0.5,0.5,0.5,0.5,0.5,0.5]]

> <FP:PLIF>
1 21 30 22 13

>  <PLIF_ligidx>
[24,[2,4,6,7,5,3],[2,4,6,7,5,3],[2,4,6,7,5,3],23]

$$$$
433
  MOE2022           3D

 63 66  0  0  1  0  0  0  0  0999 V2000
    5.4020   21.1910   18.8670 C   0  0  0  0  0  0  0  0  0  0  0  0
    5.2500   20.0330   18.1130 C   0  0  0  0  0  0  0  0  0  0  0  0
    4.1450   19.8950   17.2730 C   0  0  0  0  0  0  0  0  0  0  0  0
    4.0500   18.7300   16.5270 O   0  0  0  0  0  0  0  0  0  0  0  0
    3.0640   18.4400   15.4810 C   0  0  1  0  0  0  0  0  0  0  0  0
    3.1840   20.9080   17.1950 C   0  0  0  0  0  0  0  0  0  0  0  0
    4.4510   22.2060   18.7870 C   0  0  0  0  0  0  0  0  0  0  0  0
    3.3430   22.0610   17.9560 C   0  0  0  0  0  0  0  0  0  0  0  0
    3.4330   19.1150   14.1600 C   0  0  0  0  0  0  0  0  0  0  0  0
    3.9290   20.2420   14.1790 O   0  0  0  0  0  0  0  0  0  0  0  0
    2.8520   16.9200   15.3830 C   0  0  2  0  0  0  0  0  0  0  0  0
    3.1600   18.5010   12.9840 N   0  0  0  0  0  0  0  0  0  0  0  0
    2.0450   16.5220   14.1260 C   0  0  2  0  0  0  0  0  0  0  0  0
    2.8550   17.0500   12.9030 C   0  0  1  0  0  0  0  0  0  0  0  0
    2.2500   16.4550   16.5790 O   0  0  0  0  0  0  0  0  0  0  0  0
    3.3680   19.2180   11.7120 C   0  0  0  0  0  0  0  0  0  0  0  0
    0.6920   17.1350   14.1330 N   0  0  0  0  0  0  0  0  0  0  0  0
    1.9180   14.9790   14.1190 C   0  0  0  0  0  0  0  0  0  0  0  0
    1.1840   14.4660   13.0260 O   0  0  0  0  0  0  0  0  0  0  0  0
    2.1910   16.7260   11.6160 O   0  0  0  0  0  0  0  0  0  0  0  0
    2.7570   15.7360   10.6320 C   0  0  2  0  0  0  0  0  0  0  0  0
    4.0200   14.9740   11.0870 C   0  0  0  0  0  0  0  0  0  0  0  0
    2.9760   16.3940    9.2800 C   0  0  0  0  0  0  0  0  0  0  0  0
    3.1700   17.5970    9.1360 O   0  0  0  0  0  0  0  0  0  0  0  0
    4.2510   13.6250   10.3920 C   0  0  2  0  0  0  0  0  0  0  0  0
    3.1220   15.6320    8.1910 O   0  0  0  0  0  0  0  0  0  0  0  0
    3.1350   14.1830    8.1090 C   0  0  1  0  0  0  0  0  0  0  0  0
    5.4570   13.1140   10.9260 O   0  0  0  0  0  0  0  0  0  0  0  0
    3.1130   13.7490    6.6510 C   0  0  0  0  0  0  0  0  0  0  0  0
    3.1090   14.5420    5.7510 O   0  0  0  0  0  0  0  0  0  0  0  0
    4.3620   13.5900    8.8540 C   0  0  2  0  0  0  0  0  0  0  0  0
    4.5750   12.1840    8.4670 O   0  0  0  0  0  0  0  0  0  0  0  0
    3.3610   12.2930    6.3690 C   0  0  0  0  0  0  0  0  0  0  0  0
    4.6520   11.8780    7.0660 C   0  0  2  0  0  0  0  0  0  0  0  0
    4.8980   10.4780    6.9270 O   0  0  0  0  0  0  0  0  0  0  0  0
    6.2450   21.3040   19.5000 H   0  0  0  0  0  0  0  0  0  0  0  0
    5.9740   19.2640   18.1730 H   0  0  0  0  0  0  0  0  0  0  0  0
    2.1180   18.8550   15.7990 H   0  0  0  0  0  0  0  0  0  0  0  0
    2.3400   20.8170   16.5650 H   0  0  0  0  0  0  0  0  0  0  0  0
    4.5690   23.0910   19.3560 H   0  0  0  0  0  0  0  0  0  0  0  0
    2.6190   22.8330   17.9020 H   0  0  0  0  0  0  0  0  0  0  0  0
    3.8360   16.4590   15.3130 H   0  0  0  0  0  0  0  0  0  0  0  0
    3.8120   16.5580   12.9190 H   0  0  0  0  0  0  0  0  0  0  0  0
    1.4280   16.9290   16.7270 H   0  0  0  0  0  0  0  0  0  0  0  0
    3.6030   20.2650   11.8380 H   0  0  0  0  0  0  0  0  0  0  0  0
    4.1770   18.7790   11.1460 H   0  0  0  0  0  0  0  0  0  0  0  0
    2.4780   19.1870   11.0980 H   0  0  0  0  0  0  0  0  0  0  0  0
    0.7640   18.1430   14.1070 H   0  0  0  0  0  0  0  0  0  0  0  0
    0.1800   16.8390   14.9520 H   0  0  0  0  0  0  0  0  0  0  0  0
    2.9090   14.5260   14.1290 H   0  0  0  0  0  0  0  0  0  0  0  0
    1.3930   14.6700   15.0210 H   0  0  0  0  0  0  0  0  0  0  0  0
    0.3570   14.9550   12.9670 H   0  0  0  0  0  0  0  0  0  0  0  0
    1.9780   14.9960   10.5080 H   0  0  0  0  0  0  0  0  0  0  0  0
    4.8910   15.6150   10.9490 H   0  0  0  0  0  0  0  0  0  0  0  0
    3.9190   14.7260   12.1400 H   0  0  0  0  0  0  0  0  0  0  0  0
    3.4390   12.9550   10.6800 H   0  0  0  0  0  0  0  0  0  0  0  0
    2.2380   13.8000    8.5780 H   0  0  0  0  0  0  0  0  0  0  0  0
    5.2850   12.7780   11.8130 H   0  0  0  0  0  0  0  0  0  0  0  0
    5.2510   14.1410    8.5430 H   0  0  0  0  0  0  0  0  0  0  0  0
    2.5420   11.7000    6.7530 H   0  0  0  0  0  0  0  0  0  0  0  0
    3.4270   12.1010    5.3070 H   0  0  0  0  0  0  0  0  0  0  0  0
    5.4920   12.4170    6.6500 H   0  0  0  0  0  0  0  0  0  0  0  0
    5.5920   10.2080    7.5490 H   0  0  0  0  0  0  0  0  0  0  0  0
  1  2  1  0  0  0  0
  1  7  2  0  0  0  0
  1 36  1  0  0  0  0
  2  3  2  0  0  0  0
  2 37  1  0  0  0  0
  3  4  1  0  0  0  0
  3  6  1  0  0  0  0
  4  5  1  0  0  0  0
  5  9  1  0  0  0  0
  5 11  1  0  0  0  0
  5 38  1  0  0  0  0
  6  8  2  0  0  0  0
  6 39  1  0  0  0  0
  7  8  1  0  0  0  0
  7 40  1  0  0  0  0
  8 41  1  0  0  0  0
  9 10  2  0  0  0  0
  9 12  1  0  0  0  0
 11 13  1  0  0  0  0
 11 15  1  0  0  0  0
 11 42  1  0  0  0  0
 12 14  1  0  0  0  0
 12 16  1  0  0  0  0
 13 14  1  0  0  0  0
 13 17  1  0  0  0  0
 13 18  1  0  0  0  0
 14 20  1  0  0  0  0
 14 43  1  0  0  0  0
 15 44  1  0  0  0  0
 16 45  1  0  0  0  0
 16 46  1  0  0  0  0
 16 47  1  0  0  0  0
 17 48  1  0  0  0  0
 17 49  1  0  0  0  0
 18 19  1  0  0  0  0
 18 50  1  0  0  0  0
 18 51  1  0  0  0  0
 19 52  1  0  0  0  0
 20 21  1  0  0  0  0
 21 22  1  0  0  0  0
 21 23  1  0  0  0  0
 21 53  1  0  0  0  0
 22 25  1  0  0  0  0
 22 54  1  0  0  0  0
 22 55  1  0  0  0  0
 23 24  2  0  0  0  0
 23 26  1  0  0  0  0
 25 28  1  0  0  0  0
 25 31  1  0  0  0  0
 25 56  1  0  0  0  0
 26 27  1  0  0  0  0
 27 29  1  0  0  0  0
 27 31  1  0  0  0  0
 27 57  1  0  0  0  0
 28 58  1  0  0  0  0
 29 30  2  0  0  0  0
 29 33  1  0  0  0  0
 31 32  1  0  0  0  0
 31 59  1  0  0  0  0
 32 34  1  0  0  0  0
 33 34  1  0  0  0  0
 33 60  1  0  0  0  0
 33 61  1  0  0  0  0
 34 35  1  0  0  0  0
 34 62  1  0  0  0  0
 35 63  1  0  0  0  0
M  END
> <rseq>
1

> <mseq>
434

> <S>
-5.592648

> <rmsd_refine>
4.031321

> <E_conf>
101.2973

> <E_score1>
-10.92385

> <E_refine>
-26.45609

> <E_score2>
-5.592648

>  <$File>
outputs/pdb_4j58_cleaned.pdb_2024_06_17__22_47_40_V2_BS398_MIN1_/SDF/sdf_db.sdf

> <Rec_index>
1

>  <PLIF_raw>
[28,1056,70,3,2.3]

> <FP:PLIF>
3 4

>  <PLIF_ligidx>
[28,28]

$$$$
434
  MOE2022           3D

 62 66  0  0  1  0  0  0  0  0999 V2000
    7.6390   21.7860   16.7610 C   0  0  0  0  0  0  0  0  0  0  0  0
    6.8440   22.3620   15.7810 C   0  0  0  0  0  0  0  0  0  0  0  0
    7.1790   20.6750   17.4590 C   0  0  0  0  0  0  0  0  0  0  0  0
    5.9290   20.1300   17.1690 C   0  0  0  0  0  0  0  0  0  0  0  0
    5.5940   21.8120   15.4970 C   0  0  0  0  0  0  0  0  0  0  0  0
    4.8380   22.4430   14.5480 O   0  0  0  0  0  0  0  0  0  0  0  0
    5.1200   20.6690   16.1630 C   0  0  0  0  0  0  0  0  0  0  0  0
    3.7550   20.0470   15.8270 C   0  0  2  0  0  0  0  0  0  0  0  0
    3.5080   18.7090   16.4240 N   0  0  0  0  0  0  0  0  0  0  0  0
    3.5200   19.8700   14.3880 N   0  0  0  0  0  0  0  0  0  0  0  0
    2.7950   17.9390   15.3860 C   0  0  2  0  0  0  0  0  0  0  0  0
    3.0030   18.7610   14.1490 C   0  0  0  0  0  0  0  0  0  0  0  0
    2.5800   18.3000   12.7590 C   0  0  2  0  0  0  0  0  0  0  0  0
    1.3100   17.6920   15.7160 C   0  0  0  0  0  0  0  0  0  0  0  0
    2.9220   16.8430   12.4350 C   0  0  0  0  0  0  0  0  0  0  0  0
    2.7910   18.8050   17.7130 C   0  0  0  0  0  0  0  0  0  0  0  0
    3.1820   19.0970   11.5930 C   0  0  0  0  0  0  0  0  0  0  0  0
    3.1280   16.7950   10.9160 C   0  0  1  0  0  0  0  0  0  0  0  0
    2.1160   17.5500   18.0750 N   0  0  0  0  0  0  0  0  0  0  0  0
    3.4150   18.1600   10.5190 O   0  0  0  0  0  0  0  0  0  0  0  0
    4.1960   15.8160   10.4530 C   0  0  0  0  0  0  0  0  0  0  0  0
    2.4440   16.8770   19.2380 C   0  0  0  0  0  0  0  0  0  0  0  0
    3.7970   14.5240   10.3880 O   0  0  0  0  0  0  0  0  0  0  0  0
    1.1740   17.0090   17.0820 C   0  0  0  0  0  0  0  0  0  0  0  0
    5.3350   16.1330   10.1910 O   0  0  0  0  0  0  0  0  0  0  0  0
    4.4880   13.3590   10.0480 C   0  0  0  0  0  0  0  0  0  0  0  0
    5.8710   13.2440   10.2160 C   0  0  0  0  0  0  0  0  0  0  0  0
    6.4730   12.0460    9.8530 C   0  0  0  0  0  0  0  0  0  0  0  0
    7.8090   11.9090   10.0050 F   0  0  0  0  0  0  0  0  0  0  0  0
    3.3310   17.2580   20.0010 O   0  0  0  0  0  0  0  0  0  0  0  0
    1.7370   15.7490   19.5280 N   0  0  0  0  0  0  0  0  0  0  0  0
    3.7290   12.2930    9.5430 C   0  0  0  0  0  0  0  0  0  0  0  0
    2.2250   12.4120    9.3860 C   0  0  0  0  0  0  0  0  0  0  0  0
    4.3740   11.1070    9.1820 C   0  0  0  0  0  0  0  0  0  0  0  0
    5.7520   10.9770    9.3360 C   0  0  0  0  0  0  0  0  0  0  0  0
    8.5920   22.1930   16.9830 H   0  0  0  0  0  0  0  0  0  0  0  0
    7.1840   23.2180   15.2570 H   0  0  0  0  0  0  0  0  0  0  0  0
    7.7810   20.2390   18.2150 H   0  0  0  0  0  0  0  0  0  0  0  0
    5.6070   19.2910   17.7260 H   0  0  0  0  0  0  0  0  0  0  0  0
    5.2890   23.2420   14.2140 H   0  0  0  0  0  0  0  0  0  0  0  0
    2.9870   20.7260   16.1760 H   0  0  0  0  0  0  0  0  0  0  0  0
    3.2970   16.9870   15.2830 H   0  0  0  0  0  0  0  0  0  0  0  0
    1.5060   18.3980   12.6850 H   0  0  0  0  0  0  0  0  0  0  0  0
    0.7870   18.6500   15.7460 H   0  0  0  0  0  0  0  0  0  0  0  0
    0.8510   17.0680   14.9500 H   0  0  0  0  0  0  0  0  0  0  0  0
    3.8490   16.5710   12.9290 H   0  0  0  0  0  0  0  0  0  0  0  0
    2.1360   16.1550   12.7500 H   0  0  0  0  0  0  0  0  0  0  0  0
    3.4860   19.1140   18.4810 H   0  0  0  0  0  0  0  0  0  0  0  0
    2.0510   19.5930   17.6570 H   0  0  0  0  0  0  0  0  0  0  0  0
    2.5070   19.8820   11.2510 H   0  0  0  0  0  0  0  0  0  0  0  0
    4.1410   19.5350   11.8610 H   0  0  0  0  0  0  0  0  0  0  0  0
    2.1850   16.5290   10.4580 H   0  0  0  0  0  0  0  0  0  0  0  0
    0.1570   17.0950   17.4420 H   0  0  0  0  0  0  0  0  0  0  0  0
    1.3620   15.9520   16.9500 H   0  0  0  0  0  0  0  0  0  0  0  0
    6.4550   14.0310   10.6120 H   0  0  0  0  0  0  0  0  0  0  0  0
    1.1170   15.3530   18.8080 H   0  0  0  0  0  0  0  0  0  0  0  0
    2.1180   15.1160   20.2450 H   0  0  0  0  0  0  0  0  0  0  0  0
    1.7950   11.4970    8.9770 H   0  0  0  0  0  0  0  0  0  0  0  0
    1.7580   12.6020   10.3530 H   0  0  0  0  0  0  0  0  0  0  0  0
    1.9770   13.2330    8.7120 H   0  0  0  0  0  0  0  0  0  0  0  0
    3.8150   10.2960    8.7920 H   0  0  0  0  0  0  0  0  0  0  0  0
    6.2430   10.0780    9.0660 H   0  0  0  0  0  0  0  0  0  0  0  0
  1  2  1  0  0  0  0
  1  3  2  0  0  0  0
  1 36  1  0  0  0  0
  2  5  2  0  0  0  0
  2 37  1  0  0  0  0
  3  4  1  0  0  0  0
  3 38  1  0  0  0  0
  4  7  2  0  0  0  0
  4 39  1  0  0  0  0
  5  6  1  0  0  0  0
  5  7  1  0  0  0  0
  6 40  1  0  0  0  0
  7  8  1  0  0  0  0
  8  9  1  0  0  0  0
  8 10  1  0  0  0  0
  8 41  1  0  0  0  0
  9 11  1  0  0  0  0
  9 16  1  0  0  0  0
 10 12  2  0  0  0  0
 11 12  1  0  0  0  0
 11 14  1  0  0  0  0
 11 42  1  0  0  0  0
 12 13  1  0  0  0  0
 13 15  1  0  0  0  0
 13 17  1  0  0  0  0
 13 43  1  0  0  0  0
 14 24  1  0  0  0  0
 14 44  1  0  0  0  0
 14 45  1  0  0  0  0
 15 18  1  0  0  0  0
 15 46  1  0  0  0  0
 15 47  1  0  0  0  0
 16 19  1  0  0  0  0
 16 48  1  0  0  0  0
 16 49  1  0  0  0  0
 17 20  1  0  0  0  0
 17 50  1  0  0  0  0
 17 51  1  0  0  0  0
 18 20  1  0  0  0  0
 18 21  1  0  0  0  0
 18 52  1  0  0  0  0
 19 22  1  0  0  0  0
 19 24  1  0  0  0  0
 21 23  1  0  0  0  0
 21 25  2  0  0  0  0
 22 30  2  0  0  0  0
 22 31  1  0  0  0  0
 23 26  1  0  0  0  0
 24 53  1  0  0  0  0
 24 54  1  0  0  0  0
 26 27  2  0  0  0  0
 26 32  1  0  0  0  0
 27 28  1  0  0  0  0
 27 55  1  0  0  0  0
 28 29  1  0  0  0  0
 28 35  2  0  0  0  0
 31 56  1  0  0  0  0
 31 57  1  0  0  0  0
 32 33  1  0  0  0  0
 32 34  2  0  0  0  0
 33 58  1  0  0  0  0
 33 59  1  0  0  0  0
 33 60  1  0  0  0  0
 34 35  1  0  0  0  0
 34 61  1  0  0  0  0
 35 62  1  0  0  0  0
M  END
> <rseq>
1

> <mseq>
435

> <S>
-6.394726

> <rmsd_refine>
1.986699

> <E_conf>
-98.21704

> <E_score1>
-10.35425

> <E_refine>
-38.5655

> <E_score2>
-6.394726

>  <$File>
outputs/pdb_4j58_cleaned.pdb_2024_06_17__22_47_40_V2_BS398_MIN1_/SDF/sdf_db.sdf

> <Rec_index>
1

>  <PLIF_raw>
[[25,1,2,5,7,4,3,26,32,34,35,28,27],[823,826,826,826,826,826,826,1057,1057,1057,1057,1057,1057],[54,54,54,54,54,54,54,70,70,70,70,70,70],[2,10,10,10,10,10,10,10,10,10,10,10,10],[2.1,0.5,0.5,0.5,0.5,0.5,0.5,0.6,0.6,0.6,0.6,0.6,0.6]]

> <FP:PLIF>
6 19 2 43

>  <PLIF_ligidx>
[25,25,[1,2,5,7,4,3],[26,32,34,35,28,27]]

$$$$
435
  MOE2022           3D

 63 66  0  0  1  0  0  0  0  0999 V2000
    7.3820   21.1180   19.4000 C   0  0  0  0  0  0  0  0  0  0  0  0
    6.5600   20.0220   19.1680 C   0  0  0  0  0  0  0  0  0  0  0  0
    5.2290   20.2290   18.8100 C   0  0  0  0  0  0  0  0  0  0  0  0
    4.4690   19.1200   18.4890 O   0  0  0  0  0  0  0  0  0  0  0  0
    3.3190   19.1490   17.5780 C   0  0  1  0  0  0  0  0  0  0  0  0
    4.7040   21.5220   18.7290 C   0  0  0  0  0  0  0  0  0  0  0  0
    6.8730   22.4090   19.2890 C   0  0  0  0  0  0  0  0  0  0  0  0
    5.5360   22.6110   18.9590 C   0  0  0  0  0  0  0  0  0  0  0  0
    3.7070   19.5710   16.1580 C   0  0  0  0  0  0  0  0  0  0  0  0
    4.6960   20.2790   15.9610 O   0  0  0  0  0  0  0  0  0  0  0  0
    2.5580   17.8120   17.6350 C   0  0  2  0  0  0  0  0  0  0  0  0
    2.8980   19.2290   15.1320 N   0  0  0  0  0  0  0  0  0  0  0  0
    1.4040   17.7730   16.6070 C   0  0  2  0  0  0  0  0  0  0  0  0
    2.0520   18.0080   15.2120 C   0  0  1  0  0  0  0  0  0  0  0  0
    2.0970   17.5810   18.9580 O   0  0  0  0  0  0  0  0  0  0  0  0
    3.0270   19.9450   13.8480 C   0  0  0  0  0  0  0  0  0  0  0  0
    0.3880   18.8170   16.8930 N   0  0  0  0  0  0  0  0  0  0  0  0
    0.7660   16.3650   16.6570 C   0  0  0  0  0  0  0  0  0  0  0  0
   -0.3940   16.2360   15.8570 O   0  0  0  0  0  0  0  0  0  0  0  0
    1.0420   17.9430   14.1260 O   0  0  0  0  0  0  0  0  0  0  0  0
    1.3430   17.3360   12.7830 C   0  0  2  0  0  0  0  0  0  0  0  0
    2.6310   16.4750   12.8020 C   0  0  0  0  0  0  0  0  0  0  0  0
    1.1860   18.4130   11.7040 C   0  0  0  0  0  0  0  0  0  0  0  0
    0.4520   19.3820   11.8870 O   0  0  0  0  0  0  0  0  0  0  0  0
    3.0040   15.7800   11.4910 C   0  0  2  0  0  0  0  0  0  0  0  0
    1.7660   18.3780   10.4920 O   0  0  0  0  0  0  0  0  0  0  0  0
    2.5830   17.4840    9.7060 C   0  0  1  0  0  0  0  0  0  0  0  0
    3.8830   14.7150   11.7970 O   0  0  0  0  0  0  0  0  0  0  0  0
    3.2140   18.2720    8.5470 C   0  0  1  0  0  0  0  0  0  0  0  0
    4.1030   19.2660    9.0280 O   0  0  0  0  0  0  0  0  0  0  0  0
    3.6720   16.7850   10.5330 C   0  0  2  0  0  0  0  0  0  0  0  0
    4.7020   16.1480    9.7060 O   0  0  0  0  0  0  0  0  0  0  0  0
    3.9570   17.3010    7.6300 C   0  0  0  0  0  0  0  0  0  0  0  0
    4.9280   16.4220    8.4120 C   0  0  0  0  0  0  0  0  0  0  0  0
    5.9140   15.9390    7.8650 O   0  0  0  0  0  0  0  0  0  0  0  0
    8.4010   20.9730   19.6490 H   0  0  0  0  0  0  0  0  0  0  0  0
    6.9470   19.0400   19.2410 H   0  0  0  0  0  0  0  0  0  0  0  0
    2.6340   19.8960   17.9520 H   0  0  0  0  0  0  0  0  0  0  0  0
    3.6890   21.6860   18.4790 H   0  0  0  0  0  0  0  0  0  0  0  0
    7.5030   23.2390   19.4540 H   0  0  0  0  0  0  0  0  0  0  0  0
    5.1540   23.5950   18.8790 H   0  0  0  0  0  0  0  0  0  0  0  0
    3.2640   17.0210   17.3830 H   0  0  0  0  0  0  0  0  0  0  0  0
    2.7160   17.1680   15.0870 H   0  0  0  0  0  0  0  0  0  0  0  0
    1.8840   18.4280   19.3620 H   0  0  0  0  0  0  0  0  0  0  0  0
    3.6460   20.8290   13.9130 H   0  0  0  0  0  0  0  0  0  0  0  0
    3.4570   19.3210   13.0780 H   0  0  0  0  0  0  0  0  0  0  0  0
    2.0650   20.2990   13.5100 H   0  0  0  0  0  0  0  0  0  0  0  0
    0.8000   19.7370   16.8180 H   0  0  0  0  0  0  0  0  0  0  0  0
    0.0070   18.6800   17.8190 H   0  0  0  0  0  0  0  0  0  0  0  0
    1.5020   15.6400   16.3170 H   0  0  0  0  0  0  0  0  0  0  0  0
    0.4880   16.1230   17.6830 H   0  0  0  0  0  0  0  0  0  0  0  0
   -0.9360   17.0200   15.9910 H   0  0  0  0  0  0  0  0  0  0  0  0
    0.5290   16.6440   12.6100 H   0  0  0  0  0  0  0  0  0  0  0  0
    3.4790   17.0790   13.1210 H   0  0  0  0  0  0  0  0  0  0  0  0
    2.4730   15.6990   13.5530 H   0  0  0  0  0  0  0  0  0  0  0  0
    2.1130   15.3500   11.0300 H   0  0  0  0  0  0  0  0  0  0  0  0
    1.9150   16.7330    9.2820 H   0  0  0  0  0  0  0  0  0  0  0  0
    3.4100   14.0360   12.2860 H   0  0  0  0  0  0  0  0  0  0  0  0
    2.4210   18.7590    7.9780 H   0  0  0  0  0  0  0  0  0  0  0  0
    4.3620   19.8320    8.2960 H   0  0  0  0  0  0  0  0  0  0  0  0
    4.1980   17.5460   11.1100 H   0  0  0  0  0  0  0  0  0  0  0  0
    3.2280   16.6540    7.1420 H   0  0  0  0  0  0  0  0  0  0  0  0
    4.4940   17.8580    6.8620 H   0  0  0  0  0  0  0  0  0  0  0  0
  1  2  1  0  0  0  0
  1  7  2  0  0  0  0
  1 36  1  0  0  0  0
  2  3  2  0  0  0  0
  2 37  1  0  0  0  0
  3  4  1  0  0  0  0
  3  6  1  0  0  0  0
  4  5  1  0  0  0  0
  5  9  1  0  0  0  0
  5 11  1  0  0  0  0
  5 38  1  0  0  0  0
  6  8  2  0  0  0  0
  6 39  1  0  0  0  0
  7  8  1  0  0  0  0
  7 40  1  0  0  0  0
  8 41  1  0  0  0  0
  9 10  2  0  0  0  0
  9 12  1  0  0  0  0
 11 13  1  0  0  0  0
 11 15  1  0  0  0  0
 11 42  1  0  0  0  0
 12 14  1  0  0  0  0
 12 16  1  0  0  0  0
 13 14  1  0  0  0  0
 13 17  1  0  0  0  0
 13 18  1  0  0  0  0
 14 20  1  0  0  0  0
 14 43  1  0  0  0  0
 15 44  1  0  0  0  0
 16 45  1  0  0  0  0
 16 46  1  0  0  0  0
 16 47  1  0  0  0  0
 17 48  1  0  0  0  0
 17 49  1  0  0  0  0
 18 19  1  0  0  0  0
 18 50  1  0  0  0  0
 18 51  1  0  0  0  0
 19 52  1  0  0  0  0
 20 21  1  0  0  0  0
 21 22  1  0  0  0  0
 21 23  1  0  0  0  0
 21 53  1  0  0  0  0
 22 25  1  0  0  0  0
 22 54  1  0  0  0  0
 22 55  1  0  0  0  0
 23 24  2  0  0  0  0
 23 26  1  0  0  0  0
 25 28  1  0  0  0  0
 25 31  1  0  0  0  0
 25 56  1  0  0  0  0
 26 27  1  0  0  0  0
 27 29  1  0  0  0  0
 27 31  1  0  0  0  0
 27 57  1  0  0  0  0
 28 58  1  0  0  0  0
 29 30  1  0  0  0  0
 29 33  1  0  0  0  0
 29 59  1  0  0  0  0
 30 60  1  0  0  0  0
 31 32  1  0  0  0  0
 31 61  1  0  0  0  0
 32 34  1  0  0  0  0
 33 34  1  0  0  0  0
 33 62  1  0  0  0  0
 33 63  1  0  0  0  0
 34 35  2  0  0  0  0
M  END
> <rseq>
1

> <mseq>
436

> <S>
-6.147004

> <rmsd_refine>
1.432871

> <E_conf>
128.4464

> <E_score1>
-11.34097

> <E_refine>
-32.04592

> <E_score2>
-6.147004

>  <$File>
outputs/pdb_4j58_cleaned.pdb_2024_06_17__22_47_40_V2_BS398_MIN1_/SDF/sdf_db.sdf

> <Rec_index>
1

>  <PLIF_raw>
[15,1504,101,3,0.6]

> <FP:PLIF>
8

>  <PLIF_ligidx>
15

$$$$
472
  MOE2022           3D

 65 68  0  0  1  0  0  0  0  0999 V2000
    1.4690   16.1120   20.5210 C   0  0  0  0  0  0  0  0  0  0  0  0
    0.1330   15.7570   20.3710 C   0  0  0  0  0  0  0  0  0  0  0  0
    2.1620   16.6780   19.4550 C   0  0  0  0  0  0  0  0  0  0  0  0
   -0.5050   15.9520   19.1520 C   0  0  0  0  0  0  0  0  0  0  0  0
    0.1830   16.5270   18.0900 C   0  0  0  0  0  0  0  0  0  0  0  0
    1.5170   16.9070   18.2350 C   0  0  0  0  0  0  0  0  0  0  0  0
    2.2290   17.5440   17.0520 C   0  0  1  0  0  0  0  0  0  0  0  0
    3.2590   18.5010   17.4770 N   0  0  0  0  0  0  0  0  0  0  0  0
    2.7590   16.4940   16.0830 C   0  0  0  0  0  0  0  0  0  0  0  0
    3.9920   19.2970   16.6260 C   0  0  0  0  0  0  0  0  0  0  0  0
    2.2140   16.4930   14.8600 N   0  0  0  0  0  0  0  0  0  0  0  0
    3.6750   19.3010   15.4360 O   0  0  0  0  0  0  0  0  0  0  0  0
    5.1150   20.0670   17.1770 C   0  0  0  0  0  0  0  0  0  0  0  0
    3.6660   15.7210   16.3890 O   0  0  0  0  0  0  0  0  0  0  0  0
    2.6690   15.6640   13.7520 C   0  0  1  0  0  0  0  0  0  0  0  0
    1.7060   14.5290   13.4390 C   0  0  0  0  0  0  0  0  0  0  0  0
    2.7780   16.4530   12.4480 C   0  0  0  0  0  0  0  0  0  0  0  0
    5.5870   19.8010   18.4770 C   0  0  0  0  0  0  0  0  0  0  0  0
    1.4880   14.5950   11.9240 C   0  0  0  0  0  0  0  0  0  0  0  0
    5.7840   21.0660   16.4290 C   0  0  0  0  0  0  0  0  0  0  0  0
    2.4500   15.5510   11.3430 N   0  0  0  0  0  0  0  0  0  0  0  0
    6.7000   20.4680   18.9700 C   0  0  0  0  0  0  0  0  0  0  0  0
    5.3520   21.4310   15.1850 O   0  0  0  0  0  0  0  0  0  0  0  0
    3.5870   15.0990   10.6190 C   0  0  0  0  0  0  0  0  0  0  0  0
    7.3740   21.4090   18.1880 C   0  0  0  0  0  0  0  0  0  0  0  0
    8.4990   22.0170   18.6630 O   0  0  0  0  0  0  0  0  0  0  0  0
    7.1320   20.1910   20.2370 O   0  0  0  0  0  0  0  0  0  0  0  0
    6.9110   21.7260   16.9180 C   0  0  0  0  0  0  0  0  0  0  0  0
    4.2300   15.9800    9.7260 C   0  0  0  0  0  0  0  0  0  0  0  0
    4.0740   13.7920   10.7970 C   0  0  0  0  0  0  0  0  0  0  0  0
    3.7270   17.4010    9.4900 C   0  0  0  0  0  0  0  0  0  0  0  0
    5.3570   15.5090    9.0480 C   0  0  0  0  0  0  0  0  0  0  0  0
    5.2010   13.3560   10.1080 C   0  0  0  0  0  0  0  0  0  0  0  0
    6.0280   16.3040    8.1660 O   0  0  0  0  0  0  0  0  0  0  0  0
    5.7330   11.9530   10.3020 C   0  0  0  0  0  0  0  0  0  0  0  0
    5.8420   14.2190    9.2300 C   0  0  0  0  0  0  0  0  0  0  0  0
    1.9610   15.9540   21.4460 H   0  0  0  0  0  0  0  0  0  0  0  0
   -0.4040   15.3420   21.1810 H   0  0  0  0  0  0  0  0  0  0  0  0
    3.1820   16.9330   19.5810 H   0  0  0  0  0  0  0  0  0  0  0  0
   -1.5200   15.6700   19.0340 H   0  0  0  0  0  0  0  0  0  0  0  0
   -0.3160   16.6770   17.1670 H   0  0  0  0  0  0  0  0  0  0  0  0
    1.4820   18.1240   16.5250 H   0  0  0  0  0  0  0  0  0  0  0  0
    3.4630   18.5370   18.4860 H   0  0  0  0  0  0  0  0  0  0  0  0
    1.4770   17.1520   14.6600 H   0  0  0  0  0  0  0  0  0  0  0  0
    3.6500   15.2360   13.9580 H   0  0  0  0  0  0  0  0  0  0  0  0
    2.1620   13.5770   13.7110 H   0  0  0  0  0  0  0  0  0  0  0  0
    0.7550   14.6490   13.9600 H   0  0  0  0  0  0  0  0  0  0  0  0
    2.0660   17.2680   12.4500 H   0  0  0  0  0  0  0  0  0  0  0  0
    3.7560   16.9010   12.3470 H   0  0  0  0  0  0  0  0  0  0  0  0
    5.1090   19.0820   19.0900 H   0  0  0  0  0  0  0  0  0  0  0  0
    1.5250   13.6180   11.4620 H   0  0  0  0  0  0  0  0  0  0  0  0
    0.4890   14.9620   11.7320 H   0  0  0  0  0  0  0  0  0  0  0  0
    4.5460   20.9240   14.9490 H   0  0  0  0  0  0  0  0  0  0  0  0
    8.7380   21.6410   19.5350 H   0  0  0  0  0  0  0  0  0  0  0  0
    6.6440   19.4300   20.6070 H   0  0  0  0  0  0  0  0  0  0  0  0
    7.4090   22.4550   16.3310 H   0  0  0  0  0  0  0  0  0  0  0  0
    3.5940   13.1290   11.4640 H   0  0  0  0  0  0  0  0  0  0  0  0
    2.6500   17.4750    9.6350 H   0  0  0  0  0  0  0  0  0  0  0  0
    4.2190   18.0910   10.1750 H   0  0  0  0  0  0  0  0  0  0  0  0
    3.9230   17.7290    8.4690 H   0  0  0  0  0  0  0  0  0  0  0  0
    5.6240   17.1930    8.1390 H   0  0  0  0  0  0  0  0  0  0  0  0
    4.9710   11.2220   10.0350 H   0  0  0  0  0  0  0  0  0  0  0  0
    6.6080   11.7700    9.6790 H   0  0  0  0  0  0  0  0  0  0  0  0
    6.0260   11.7960   11.3390 H   0  0  0  0  0  0  0  0  0  0  0  0
    6.6920   13.8960    8.6950 H   0  0  0  0  0  0  0  0  0  0  0  0
  1  2  2  0  0  0  0
  1  3  1  0  0  0  0
  1 37  1  0  0  0  0
  2  4  1  0  0  0  0
  2 38  1  0  0  0  0
  3  6  2  0  0  0  0
  3 39  1  0  0  0  0
  4  5  2  0  0  0  0
  4 40  1  0  0  0  0
  5  6  1  0  0  0  0
  5 41  1  0  0  0  0
  6  7  1  0  0  0  0
  7  8  1  0  0  0  0
  7  9  1  0  0  0  0
  7 42  1  0  0  0  0
  8 10  1  0  0  0  0
  8 43  1  0  0  0  0
  9 11  1  0  0  0  0
  9 14  2  0  0  0  0
 10 12  2  0  0  0  0
 10 13  1  0  0  0  0
 11 15  1  0  0  0  0
 11 44  1  0  0  0  0
 13 18  1  0  0  0  0
 13 20  2  0  0  0  0
 15 16  1  0  0  0  0
 15 17  1  0  0  0  0
 15 45  1  0  0  0  0
 16 19  1  0  0  0  0
 16 46  1  0  0  0  0
 16 47  1  0  0  0  0
 17 21  1  0  0  0  0
 17 48  1  0  0  0  0
 17 49  1  0  0  0  0
 18 22  2  0  0  0  0
 18 50  1  0  0  0  0
 19 21  1  0  0  0  0
 19 51  1  0  0  0  0
 19 52  1  0  0  0  0
 20 23  1  0  0  0  0
 20 28  1  0  0  0  0
 21 24  1  0  0  0  0
 22 25  1  0  0  0  0
 22 27  1  0  0  0  0
 23 53  1  0  0  0  0
 24 29  2  0  0  0  0
 24 30  1  0  0  0  0
 25 26  1  0  0  0  0
 25 28  2  0  0  0  0
 26 54  1  0  0  0  0
 27 55  1  0  0  0  0
 28 56  1  0  0  0  0
 29 31  1  0  0  0  0
 29 32  1  0  0  0  0
 30 33  2  0  0  0  0
 30 57  1  0  0  0  0
 31 58  1  0  0  0  0
 31 59  1  0  0  0  0
 31 60  1  0  0  0  0
 32 34  1  0  0  0  0
 32 36  2  0  0  0  0
 33 35  1  0  0  0  0
 33 36  1  0  0  0  0
 34 61  1  0  0  0  0
 35 62  1  0  0  0  0
 35 63  1  0  0  0  0
 35 64  1  0  0  0  0
 36 65  1  0  0  0  0
M  END
> <rseq>
1

> <mseq>
473

> <S>
-7.910428

> <rmsd_refine>
1.767049

> <E_conf>
-23.25914

> <E_score1>
-10.28247

> <E_refine>
-45.16734

> <E_score2>
-7.910428

>  <$File>
outputs/pdb_4j58_cleaned.pdb_2024_06_17__22_47_40_V2_BS398_MIN1_/SDF/sdf_db.sdf

> <Rec_index>
1

>  <PLIF_raw>
[[14,26,26,26,26,26,26,24,29,32,36,33,30,1,3,6,5,4,2],[954,1651,1655,1659,1657,1653,1650,823,823,823,823,823,823,1519,1519,1519,1519,1519,1519],[62,112,112,112,112,112,112,54,54,54,54,54,54,102,102,102,102,102,102],[2,10,10,10,10,10,10,10,10,10,10,10,10,10,10,10,10,10,10],[1.4,1.9,1.9,1.9,1.9,1.9,1.9,0.8,0.8,0.8,0.8,0.8,0.8,0.6,0.6,0.6,0.6,0.6,0.6]]

> <FP:PLIF>
2 20 22 15 47

>  <PLIF_ligidx>
[[24,29,32,36,33,30],14,[1,3,6,5,4,2],[26,26,26,26,26,26],[26,26,26,26,26,26]]

$$$$
473
  MOE2022           3D

 62 65  0  0  1  0  0  0  0  0999 V2000
    3.6490   17.8080   19.5490 O   0  0  0  0  0  0  0  0  0  0  0  0
    2.7080   17.3950   18.8620 C   0  0  0  0  0  0  0  0  0  0  0  0
    1.6270   16.5950   19.3710 C   0  0  0  0  0  0  0  0  0  0  0  0
    2.6890   17.6990   17.4960 N   0  0  0  0  0  0  0  0  0  0  0  0
    0.6350   16.1980   18.5240 C   0  0  0  0  0  0  0  0  0  0  0  0
    1.6800   17.1700   16.6710 C   0  0  0  0  0  0  0  0  0  0  0  0
    0.6930   16.4940   17.1830 N   0  0  0  0  0  0  0  0  0  0  0  0
    1.8140   17.3280   15.2330 C   0  0  0  0  0  0  0  0  0  0  0  0
    3.7500   18.5750   16.9070 C   0  0  0  0  0  0  0  0  0  0  0  0
    1.6190   16.2000   20.8390 C   0  0  0  0  0  0  0  0  0  0  0  0
   -0.5530   15.3680   18.9680 C   0  0  0  0  0  0  0  0  0  0  0  0
    3.3260   20.0340   16.6460 C   0  0  1  0  0  0  0  0  0  0  0  0
    3.5670   20.9510   17.8500 C   0  0  0  0  0  0  0  0  0  0  0  0
    1.0740   18.2840   14.5210 C   0  0  0  0  0  0  0  0  0  0  0  0
    4.1650   20.6780   15.5530 C   0  0  0  0  0  0  0  0  0  0  0  0
    1.2380   18.4240   13.1470 C   0  0  0  0  0  0  0  0  0  0  0  0
    2.1420   17.6000   12.4690 C   0  0  0  0  0  0  0  0  0  0  0  0
    4.1450   20.2850   14.3870 O   0  0  0  0  0  0  0  0  0  0  0  0
    2.6990   16.5040   14.5200 C   0  0  0  0  0  0  0  0  0  0  0  0
    4.6840   21.9450   17.4630 C   0  0  1  0  0  0  0  0  0  0  0  0
    4.9000   21.6900   16.0270 N   0  0  0  0  0  0  0  0  0  0  0  0
    5.8720   22.4370   15.2230 C   0  0  0  0  0  0  0  0  0  0  0  0
    4.1860   23.3980   17.6550 C   0  0  0  0  0  0  0  0  0  0  0  0
    2.2820   17.7820   11.1070 O   0  0  0  0  0  0  0  0  0  0  0  0
    3.4030   15.5420   15.1760 O   0  0  0  0  0  0  0  0  0  0  0  0
    2.9830   16.9200   10.2790 C   0  0  0  0  0  0  0  0  0  0  0  0
    5.9480   21.6550   18.2980 C   0  0  0  0  0  0  0  0  0  0  0  0
    4.0590   17.4070    9.5350 C   0  0  0  0  0  0  0  0  0  0  0  0
    2.8850   16.6370   13.1520 C   0  0  0  0  0  0  0  0  0  0  0  0
    2.6190   15.5770   10.1930 C   0  0  0  0  0  0  0  0  0  0  0  0
    6.1980   22.3890   19.2830 O   0  0  0  0  0  0  0  0  0  0  0  0
    6.6450   20.6630   17.9860 O   0  5  0  0  0  0  0  0  0  0  0  0
    4.4010   18.7300    9.6090 O   0  0  0  0  0  0  0  0  0  0  0  0
    4.7950   16.5520    8.7190 C   0  0  0  0  0  0  0  0  0  0  0  0
    4.4420   15.2060    8.6450 C   0  0  0  0  0  0  0  0  0  0  0  0
    3.3560   14.7210    9.3770 C   0  0  0  0  0  0  0  0  0  0  0  0
    4.6420   18.5890   17.5150 H   0  0  0  0  0  0  0  0  0  0  0  0
    4.1090   18.1460   15.9830 H   0  0  0  0  0  0  0  0  0  0  0  0
    0.8430   16.7250   21.3770 H   0  0  0  0  0  0  0  0  0  0  0  0
    1.4450   15.1400   20.9540 H   0  0  0  0  0  0  0  0  0  0  0  0
    2.5590   16.4070   21.3310 H   0  0  0  0  0  0  0  0  0  0  0  0
   -0.9520   15.7060   19.9140 H   0  0  0  0  0  0  0  0  0  0  0  0
   -1.3610   15.4150   18.2500 H   0  0  0  0  0  0  0  0  0  0  0  0
   -0.2790   14.3280   19.0740 H   0  0  0  0  0  0  0  0  0  0  0  0
    2.2760   20.0660   16.3570 H   0  0  0  0  0  0  0  0  0  0  0  0
    2.6400   21.4740   18.0920 H   0  0  0  0  0  0  0  0  0  0  0  0
    3.8780   20.3700   18.7170 H   0  0  0  0  0  0  0  0  0  0  0  0
    0.3890   18.9080   15.0350 H   0  0  0  0  0  0  0  0  0  0  0  0
    0.6820   19.1510   12.6130 H   0  0  0  0  0  0  0  0  0  0  0  0
    5.5840   23.4740   15.1250 H   0  0  0  0  0  0  0  0  0  0  0  0
    6.8540   22.4120   15.6760 H   0  0  0  0  0  0  0  0  0  0  0  0
    5.9690   22.0350   14.2240 H   0  0  0  0  0  0  0  0  0  0  0  0
    3.8820   23.5680   18.6890 H   0  0  0  0  0  0  0  0  0  0  0  0
    4.9740   24.1120   17.4150 H   0  0  0  0  0  0  0  0  0  0  0  0
    3.3300   23.6040   17.0120 H   0  0  0  0  0  0  0  0  0  0  0  0
    3.0830   15.4510   16.0970 H   0  0  0  0  0  0  0  0  0  0  0  0
    3.5760   16.0130   12.6500 H   0  0  0  0  0  0  0  0  0  0  0  0
    1.7940   15.2080   10.7470 H   0  0  0  0  0  0  0  0  0  0  0  0
    5.1990   18.9050    9.0710 H   0  0  0  0  0  0  0  0  0  0  0  0
    5.6150   16.9160    8.1560 H   0  0  0  0  0  0  0  0  0  0  0  0
    4.9970   14.5470    8.0280 H   0  0  0  0  0  0  0  0  0  0  0  0
    3.0910   13.6970    9.3110 H   0  0  0  0  0  0  0  0  0  0  0  0
  1  2  2  0  0  0  0
  2  3  1  0  0  0  0
  2  4  1  0  0  0  0
  3  5  2  0  0  0  0
  3 10  1  0  0  0  0
  4  6  1  0  0  0  0
  4  9  1  0  0  0  0
  5  7  1  0  0  0  0
  5 11  1  0  0  0  0
  6  7  2  0  0  0  0
  6  8  1  0  0  0  0
  8 14  1  0  0  0  0
  8 19  2  0  0  0  0
  9 12  1  0  0  0  0
  9 37  1  0  0  0  0
  9 38  1  0  0  0  0
 10 39  1  0  0  0  0
 10 40  1  0  0  0  0
 10 41  1  0  0  0  0
 11 42  1  0  0  0  0
 11 43  1  0  0  0  0
 11 44  1  0  0  0  0
 12 13  1  0  0  0  0
 12 15  1  0  0  0  0
 12 45  1  0  0  0  0
 13 20  1  0  0  0  0
 13 46  1  0  0  0  0
 13 47  1  0  0  0  0
 14 16  2  0  0  0  0
 14 48  1  0  0  0  0
 15 18  2  0  0  0  0
 15 21  1  0  0  0  0
 16 17  1  0  0  0  0
 16 49  1  0  0  0  0
 17 24  1  0  0  0  0
 17 29  2  0  0  0  0
 19 25  1  0  0  0  0
 19 29  1  0  0  0  0
 20 21  1  0  0  0  0
 20 23  1  0  0  0  0
 20 27  1  0  0  0  0
 21 22  1  0  0  0  0
 22 50  1  0  0  0  0
 22 51  1  0  0  0  0
 22 52  1  0  0  0  0
 23 53  1  0  0  0  0
 23 54  1  0  0  0  0
 23 55  1  0  0  0  0
 24 26  1  0  0  0  0
 25 56  1  0  0  0  0
 26 28  1  0  0  0  0
 26 30  2  0  0  0  0
 27 31  2  0  0  0  0
 27 32  1  0  0  0  0
 28 33  1  0  0  0  0
 28 34  2  0  0  0  0
 29 57  1  0  0  0  0
 30 36  1  0  0  0  0
 30 58  1  0  0  0  0
 33 59  1  0  0  0  0
 34 35  1  0  0  0  0
 34 60  1  0  0  0  0
 35 36  2  0  0  0  0
 35 61  1  0  0  0  0
 36 62  1  0  0  0  0
M  CHG  1  32  -1
M  END
> <rseq>
1

> <mseq>
474

> <S>
-6.291946

> <rmsd_refine>
0.8763891

> <E_conf>
-50.34822

> <E_score1>
-13.34267

> <E_refine>
-34.21582

> <E_score2>
-6.291946

>  <$File>
outputs/pdb_4j58_cleaned.pdb_2024_06_17__22_47_40_V2_BS398_MIN1_/SDF/sdf_db.sdf

> <Rec_index>
1

>  <PLIF_raw>
[[33,31],[2222,1872],[148,125],[3,7],[1.8,3.199766673]]

> <FP:PLIF>
13 39 40

>  <PLIF_ligidx>
[31,33,33]

$$$$
474
  MOE2022           3D

 63 66  0  0  1  0  0  0  0  0999 V2000
    2.4480   16.3280   20.8200 C   0  0  0  0  0  0  0  0  0  0  0  0
    1.1300   15.9340   20.9920 C   0  0  0  0  0  0  0  0  0  0  0  0
    2.8370   16.9560   19.6440 C   0  0  0  0  0  0  0  0  0  0  0  0
    0.2020   16.1480   19.9800 C   0  0  0  0  0  0  0  0  0  0  0  0
    0.5930   16.7690   18.7980 C   0  0  0  0  0  0  0  0  0  0  0  0
    1.9130   17.1860   18.6220 C   0  0  0  0  0  0  0  0  0  0  0  0
    2.3230   17.8360   17.3090 C   0  0  1  0  0  0  0  0  0  0  0  0
    3.4350   18.7790   17.4980 N   0  0  0  0  0  0  0  0  0  0  0  0
    2.6000   16.7620   16.2620 C   0  0  0  0  0  0  0  0  0  0  0  0
    4.0720   19.4800   16.5020 C   0  0  0  0  0  0  0  0  0  0  0  0
    1.7520   16.7080   15.2260 N   0  0  0  0  0  0  0  0  0  0  0  0
    3.6140   19.4060   15.3630 O   0  0  0  0  0  0  0  0  0  0  0  0
    5.2660   20.2550   16.8570 C   0  0  0  0  0  0  0  0  0  0  0  0
    3.5310   15.9640   16.3770 O   0  0  0  0  0  0  0  0  0  0  0  0
    1.7060   15.5990   14.2830 C   0  0  1  0  0  0  0  0  0  0  0  0
    0.3370   15.5500   13.5890 C   0  0  0  0  0  0  0  0  0  0  0  0
    2.7010   15.7930   13.1310 C   0  0  0  0  0  0  0  0  0  0  0  0
    5.9620   19.9760   18.0490 C   0  0  0  0  0  0  0  0  0  0  0  0
    0.5650   16.3380   12.3040 C   0  0  0  0  0  0  0  0  0  0  0  0
    5.7830   21.2700   16.0170 C   0  0  0  0  0  0  0  0  0  0  0  0
    1.9460   16.1200   11.9260 N   0  0  0  0  0  0  0  0  0  0  0  0
    7.1350   20.6540   18.3520 C   0  0  0  0  0  0  0  0  0  0  0  0
    5.1550   21.6130   14.8540 O   0  0  0  0  0  0  0  0  0  0  0  0
    7.8050   20.3420   19.5040 O   0  0  0  0  0  0  0  0  0  0  0  0
    7.6360   21.6350   17.4920 C   0  0  0  0  0  0  0  0  0  0  0  0
    8.7990   22.2790   17.7920 O   0  0  0  0  0  0  0  0  0  0  0  0
    6.9570   21.9570   16.3240 C   0  0  0  0  0  0  0  0  0  0  0  0
    2.3600   15.8700   10.6320 C   0  0  0  0  0  0  0  0  0  0  0  0
    1.6160   16.1690    9.7030 O   0  0  0  0  0  0  0  0  0  0  0  0
    3.6630   15.2520   10.4180 C   0  0  0  0  0  0  0  0  0  0  0  0
    4.7580   16.0580   10.0880 C   0  0  0  0  0  0  0  0  0  0  0  0
    3.8420   13.8620   10.5470 C   0  0  0  0  0  0  0  0  0  0  0  0
    2.6720   12.9440   10.8560 C   0  0  0  0  0  0  0  0  0  0  0  0
    5.1150   13.3170   10.3980 C   0  0  0  0  0  0  0  0  0  0  0  0
    6.0170   15.5000    9.9240 C   0  0  0  0  0  0  0  0  0  0  0  0
    6.1990   14.1320   10.0910 C   0  0  0  0  0  0  0  0  0  0  0  0
    3.1570   16.1480   21.5850 H   0  0  0  0  0  0  0  0  0  0  0  0
    0.8410   15.4740   21.8950 H   0  0  0  0  0  0  0  0  0  0  0  0
    3.8440   17.2540   19.5360 H   0  0  0  0  0  0  0  0  0  0  0  0
   -0.8040   15.8410   20.1080 H   0  0  0  0  0  0  0  0  0  0  0  0
   -0.1190   16.9220   18.0280 H   0  0  0  0  0  0  0  0  0  0  0  0
    1.4800   18.4240   16.9690 H   0  0  0  0  0  0  0  0  0  0  0  0
    3.7440   18.9200   18.4710 H   0  0  0  0  0  0  0  0  0  0  0  0
    1.0310   17.4090   15.1450 H   0  0  0  0  0  0  0  0  0  0  0  0
    1.8970   14.6580   14.7980 H   0  0  0  0  0  0  0  0  0  0  0  0
    0.1090   14.5180   13.3280 H   0  0  0  0  0  0  0  0  0  0  0  0
   -0.4630   15.9750   14.1960 H   0  0  0  0  0  0  0  0  0  0  0  0
    3.4020   16.5950   13.3670 H   0  0  0  0  0  0  0  0  0  0  0  0
    3.2600   14.8680   13.0040 H   0  0  0  0  0  0  0  0  0  0  0  0
    5.6130   19.2330   18.7180 H   0  0  0  0  0  0  0  0  0  0  0  0
   -0.1310   16.0040   11.5330 H   0  0  0  0  0  0  0  0  0  0  0  0
    0.4090   17.4010   12.4970 H   0  0  0  0  0  0  0  0  0  0  0  0
    4.3500   21.0660   14.7310 H   0  0  0  0  0  0  0  0  0  0  0  0
    7.3740   19.6010   19.9710 H   0  0  0  0  0  0  0  0  0  0  0  0
    9.1750   21.9120   18.6180 H   0  0  0  0  0  0  0  0  0  0  0  0
    7.3290   22.7090   15.6760 H   0  0  0  0  0  0  0  0  0  0  0  0
    4.6240   17.1030    9.9660 H   0  0  0  0  0  0  0  0  0  0  0  0
    2.9160   11.9070   10.6260 H   0  0  0  0  0  0  0  0  0  0  0  0
    2.3990   13.0010   11.9100 H   0  0  0  0  0  0  0  0  0  0  0  0
    1.7990   13.2110   10.2600 H   0  0  0  0  0  0  0  0  0  0  0  0
    5.2640   12.2750   10.5160 H   0  0  0  0  0  0  0  0  0  0  0  0
    6.8380   16.1170    9.6750 H   0  0  0  0  0  0  0  0  0  0  0  0
    7.1640   13.7070    9.9840 H   0  0  0  0  0  0  0  0  0  0  0  0
  1  2  2  0  0  0  0
  1  3  1  0  0  0  0
  1 37  1  0  0  0  0
  2  4  1  0  0  0  0
  2 38  1  0  0  0  0
  3  6  2  0  0  0  0
  3 39  1  0  0  0  0
  4  5  2  0  0  0  0
  4 40  1  0  0  0  0
  5  6  1  0  0  0  0
  5 41  1  0  0  0  0
  6  7  1  0  0  0  0
  7  8  1  0  0  0  0
  7  9  1  0  0  0  0
  7 42  1  0  0  0  0
  8 10  1  0  0  0  0
  8 43  1  0  0  0  0
  9 11  1  0  0  0  0
  9 14  2  0  0  0  0
 10 12  2  0  0  0  0
 10 13  1  0  0  0  0
 11 15  1  0  0  0  0
 11 44  1  0  0  0  0
 13 18  1  0  0  0  0
 13 20  2  0  0  0  0
 15 16  1  0  0  0  0
 15 17  1  0  0  0  0
 15 45  1  0  0  0  0
 16 19  1  0  0  0  0
 16 46  1  0  0  0  0
 16 47  1  0  0  0  0
 17 21  1  0  0  0  0
 17 48  1  0  0  0  0
 17 49  1  0  0  0  0
 18 22  2  0  0  0  0
 18 50  1  0  0  0  0
 19 21  1  0  0  0  0
 19 51  1  0  0  0  0
 19 52  1  0  0  0  0
 20 23  1  0  0  0  0
 20 27  1  0  0  0  0
 21 28  1  0  0  0  0
 22 24  1  0  0  0  0
 22 25  1  0  0  0  0
 23 53  1  0  0  0  0
 24 54  1  0  0  0  0
 25 26  1  0  0  0  0
 25 27  2  0  0  0  0
 26 55  1  0  0  0  0
 27 56  1  0  0  0  0
 28 29  2  0  0  0  0
 28 30  1  0  0  0  0
 30 31  2  0  0  0  0
 30 32  1  0  0  0  0
 31 35  1  0  0  0  0
 31 57  1  0  0  0  0
 32 33  1  0  0  0  0
 32 34  2  0  0  0  0
 33 58  1  0  0  0  0
 33 59  1  0  0  0  0
 33 60  1  0  0  0  0
 34 36  1  0  0  0  0
 34 61  1  0  0  0  0
 35 36  2  0  0  0  0
 35 62  1  0  0  0  0
 36 63  1  0  0  0  0
M  END
> <rseq>
1

> <mseq>
475

> <S>
-7.762731

> <rmsd_refine>
1.818262

> <E_conf>
14.01758

> <E_score1>
-10.26095

> <E_refine>
-41.96425

> <E_score2>
-7.762731

>  <$File>
outputs/pdb_4j58_cleaned.pdb_2024_06_17__22_47_40_V2_BS398_MIN1_/SDF/sdf_db.sdf

> <Rec_index>
1

>  <PLIF_raw>
[14,954,62,2,2.3]

> <FP:PLIF>
20 23

>  <PLIF_ligidx>
[14,14]

$$$$
475
  MOE2022           3D

 64 67  0  0  1  0  0  0  0  0999 V2000
    7.3780   21.1120   19.4040 C   0  0  0  0  0  0  0  0  0  0  0  0
    6.5530   20.0180   19.1770 C   0  0  0  0  0  0  0  0  0  0  0  0
    5.2220   20.2260   18.8200 C   0  0  0  0  0  0  0  0  0  0  0  0
    4.4600   19.1180   18.5030 O   0  0  0  0  0  0  0  0  0  0  0  0
    3.3140   19.1480   17.5850 C   0  0  1  0  0  0  0  0  0  0  0  0
    4.7000   21.5200   18.7350 C   0  0  0  0  0  0  0  0  0  0  0  0
    6.8710   22.4040   19.2900 C   0  0  0  0  0  0  0  0  0  0  0  0
    5.5340   22.6080   18.9610 C   0  0  0  0  0  0  0  0  0  0  0  0
    3.7120   19.5650   16.1660 C   0  0  0  0  0  0  0  0  0  0  0  0
    4.7100   20.2600   15.9710 O   0  0  0  0  0  0  0  0  0  0  0  0
    2.5480   17.8140   17.6390 C   0  0  2  0  0  0  0  0  0  0  0  0
    2.9020   19.2310   15.1380 N   0  0  0  0  0  0  0  0  0  0  0  0
    1.3960   17.7810   16.6080 C   0  0  2  0  0  0  0  0  0  0  0  0
    2.0460   18.0150   15.2150 C   0  0  1  0  0  0  0  0  0  0  0  0
    2.0820   17.5850   18.9610 O   0  0  0  0  0  0  0  0  0  0  0  0
    3.0370   19.9510   13.8590 C   0  0  0  0  0  0  0  0  0  0  0  0
    0.3820   18.8280   16.8930 N   0  0  0  0  0  0  0  0  0  0  0  0
    0.7520   16.3750   16.6570 C   0  0  0  0  0  0  0  0  0  0  0  0
   -0.4030   16.2490   15.8490 O   0  0  0  0  0  0  0  0  0  0  0  0
    1.0370   17.9590   14.1250 O   0  0  0  0  0  0  0  0  0  0  0  0
    1.3390   17.3580   12.7790 C   0  0  2  0  0  0  0  0  0  0  0  0
    2.6160   16.4800   12.8040 C   0  0  0  0  0  0  0  0  0  0  0  0
    1.2050   18.4460   11.7060 C   0  0  0  0  0  0  0  0  0  0  0  0
    0.4860   19.4250   11.8920 O   0  0  0  0  0  0  0  0  0  0  0  0
    2.9930   15.7820   11.4960 C   0  0  2  0  0  0  0  0  0  0  0  0
    1.7950   18.4130   10.4980 O   0  0  0  0  0  0  0  0  0  0  0  0
    2.5890   17.4950    9.7170 C   0  0  1  0  0  0  0  0  0  0  0  0
    3.8700   14.7180   11.8090 O   0  0  0  0  0  0  0  0  0  0  0  0
    3.2400   18.2540    8.5490 C   0  0  1  0  0  0  0  0  0  0  0  0
    4.1160   19.2630    9.0280 O   0  0  0  0  0  0  0  0  0  0  0  0
    3.6700   16.7850   10.5430 C   0  0  2  0  0  0  0  0  0  0  0  0
    4.7080   16.1440    9.7200 O   0  0  0  0  0  0  0  0  0  0  0  0
    3.9960   17.2750    7.6440 C   0  0  1  0  0  0  0  0  0  0  0  0
    4.9790   16.4330    8.4340 C   0  0  0  0  0  0  0  0  0  0  0  0
    3.0570   16.4250    6.9410 O   0  0  0  0  0  0  0  0  0  0  0  0
    6.0110   15.9810    7.9470 O   0  0  0  0  0  0  0  0  0  0  0  0
    8.3970   20.9660   19.6510 H   0  0  0  0  0  0  0  0  0  0  0  0
    6.9390   19.0350   19.2530 H   0  0  0  0  0  0  0  0  0  0  0  0
    2.6290   19.8980   17.9540 H   0  0  0  0  0  0  0  0  0  0  0  0
    3.6850   21.6850   18.4870 H   0  0  0  0  0  0  0  0  0  0  0  0
    7.5040   23.2340   19.4510 H   0  0  0  0  0  0  0  0  0  0  0  0
    5.1540   23.5930   18.8780 H   0  0  0  0  0  0  0  0  0  0  0  0
    3.2510   17.0200   17.3890 H   0  0  0  0  0  0  0  0  0  0  0  0
    2.7050   17.1710   15.0890 H   0  0  0  0  0  0  0  0  0  0  0  0
    1.8820   18.4330   19.3680 H   0  0  0  0  0  0  0  0  0  0  0  0
    3.6710   20.8240   13.9250 H   0  0  0  0  0  0  0  0  0  0  0  0
    3.4520   19.3250   13.0830 H   0  0  0  0  0  0  0  0  0  0  0  0
    2.0790   20.3250   13.5300 H   0  0  0  0  0  0  0  0  0  0  0  0
    0.7980   19.7460   16.8210 H   0  0  0  0  0  0  0  0  0  0  0  0
   -0.0010   18.6910   17.8180 H   0  0  0  0  0  0  0  0  0  0  0  0
    1.4870   15.6460   16.3220 H   0  0  0  0  0  0  0  0  0  0  0  0
    0.4670   16.1360   17.6810 H   0  0  0  0  0  0  0  0  0  0  0  0
   -0.9470   17.0300   15.9840 H   0  0  0  0  0  0  0  0  0  0  0  0
    0.5180   16.6780   12.5950 H   0  0  0  0  0  0  0  0  0  0  0  0
    3.4690   17.0730   13.1310 H   0  0  0  0  0  0  0  0  0  0  0  0
    2.4430   15.7040   13.5520 H   0  0  0  0  0  0  0  0  0  0  0  0
    2.1050   15.3540   11.0290 H   0  0  0  0  0  0  0  0  0  0  0  0
    1.9040   16.7540    9.3040 H   0  0  0  0  0  0  0  0  0  0  0  0
    3.3890   14.0320   12.2810 H   0  0  0  0  0  0  0  0  0  0  0  0
    2.4530   18.7270    7.9600 H   0  0  0  0  0  0  0  0  0  0  0  0
    4.3500   19.8440    8.2990 H   0  0  0  0  0  0  0  0  0  0  0  0
    4.1970   17.5410   11.1250 H   0  0  0  0  0  0  0  0  0  0  0  0
    4.5310   17.8220    6.8810 H   0  0  0  0  0  0  0  0  0  0  0  0
    3.5320   15.8220    6.3450 H   0  0  0  0  0  0  0  0  0  0  0  0
  1  2  1  0  0  0  0
  1  7  2  0  0  0  0
  1 37  1  0  0  0  0
  2  3  2  0  0  0  0
  2 38  1  0  0  0  0
  3  4  1  0  0  0  0
  3  6  1  0  0  0  0
  4  5  1  0  0  0  0
  5  9  1  0  0  0  0
  5 11  1  0  0  0  0
  5 39  1  0  0  0  0
  6  8  2  0  0  0  0
  6 40  1  0  0  0  0
  7  8  1  0  0  0  0
  7 41  1  0  0  0  0
  8 42  1  0  0  0  0
  9 10  2  0  0  0  0
  9 12  1  0  0  0  0
 11 13  1  0  0  0  0
 11 15  1  0  0  0  0
 11 43  1  0  0  0  0
 12 14  1  0  0  0  0
 12 16  1  0  0  0  0
 13 14  1  0  0  0  0
 13 17  1  0  0  0  0
 13 18  1  0  0  0  0
 14 20  1  0  0  0  0
 14 44  1  0  0  0  0
 15 45  1  0  0  0  0
 16 46  1  0  0  0  0
 16 47  1  0  0  0  0
 16 48  1  0  0  0  0
 17 49  1  0  0  0  0
 17 50  1  0  0  0  0
 18 19  1  0  0  0  0
 18 51  1  0  0  0  0
 18 52  1  0  0  0  0
 19 53  1  0  0  0  0
 20 21  1  0  0  0  0
 21 22  1  0  0  0  0
 21 23  1  0  0  0  0
 21 54  1  0  0  0  0
 22 25  1  0  0  0  0
 22 55  1  0  0  0  0
 22 56  1  0  0  0  0
 23 24  2  0  0  0  0
 23 26  1  0  0  0  0
 25 28  1  0  0  0  0
 25 31  1  0  0  0  0
 25 57  1  0  0  0  0
 26 27  1  0  0  0  0
 27 29  1  0  0  0  0
 27 31  1  0  0  0  0
 27 58  1  0  0  0  0
 28 59  1  0  0  0  0
 29 30  1  0  0  0  0
 29 33  1  0  0  0  0
 29 60  1  0  0  0  0
 30 61  1  0  0  0  0
 31 32  1  0  0  0  0
 31 62  1  0  0  0  0
 32 34  1  0  0  0  0
 33 34  1  0  0  0  0
 33 35  1  0  0  0  0
 33 63  1  0  0  0  0
 34 36  2  0  0  0  0
 35 64  1  0  0  0  0
M  END
> <rseq>
1

> <mseq>
476

> <S>
-6.191071

> <rmsd_refine>
1.560729

> <E_conf>
208.0989

> <E_score1>
-11.35685

> <E_refine>
-31.89704

> <E_score2>
-6.191071

>  <$File>
outputs/pdb_4j58_cleaned.pdb_2024_06_17__22_47_40_V2_BS398_MIN1_/SDF/sdf_db.sdf

> <Rec_index>
1

>  <PLIF_raw>
[15,1504,101,3,0.6]

> <FP:PLIF>
8

>  <PLIF_ligidx>
15

$$$$
476
  MOE2022           3D

 63 66  0  0  1  0  0  0  0  0999 V2000
    2.5600   16.2370   20.9860 C   0  0  0  0  0  0  0  0  0  0  0  0
    1.2710   15.8740   21.3370 C   0  0  0  0  0  0  0  0  0  0  0  0
    2.8050   16.8110   19.7480 C   0  0  0  0  0  0  0  0  0  0  0  0
    0.2270   16.0480   20.4340 C   0  0  0  0  0  0  0  0  0  0  0  0
    0.4780   16.6050   19.1820 C   0  0  0  0  0  0  0  0  0  0  0  0
    1.7670   17.0090   18.8380 C   0  0  0  0  0  0  0  0  0  0  0  0
    2.0490   17.6440   17.4860 C   0  0  1  0  0  0  0  0  0  0  0  0
    2.9820   18.7750   17.6670 N   0  0  0  0  0  0  0  0  0  0  0  0
    2.5290   16.5960   16.4870 C   0  0  0  0  0  0  0  0  0  0  0  0
    3.8300   19.3160   16.7260 C   0  0  0  0  0  0  0  0  0  0  0  0
    1.9470   16.6060   15.2820 N   0  0  0  0  0  0  0  0  0  0  0  0
    3.5940   19.1170   15.5380 O   0  0  0  0  0  0  0  0  0  0  0  0
    4.9830   20.0830   17.2050 C   0  0  0  0  0  0  0  0  0  0  0  0
    3.4680   15.8430   16.7360 O   0  0  0  0  0  0  0  0  0  0  0  0
    2.5110   15.9410   14.1160 C   0  0  1  0  0  0  0  0  0  0  0  0
    1.6400   14.7910   13.6290 C   0  0  0  0  0  0  0  0  0  0  0  0
    2.6190   16.9100   12.9360 C   0  0  0  0  0  0  0  0  0  0  0  0
    5.5000   19.8450   18.4930 C   0  0  0  0  0  0  0  0  0  0  0  0
    1.0660   15.2650   12.2950 C   0  0  0  0  0  0  0  0  0  0  0  0
    5.6350   21.0470   16.4020 C   0  0  0  0  0  0  0  0  0  0  0  0
    1.9380   16.3270   11.7770 N   0  0  0  0  0  0  0  0  0  0  0  0
    6.6310   20.5200   18.9310 C   0  0  0  0  0  0  0  0  0  0  0  0
    5.1710   21.3600   15.1550 O   0  0  0  0  0  0  0  0  0  0  0  0
    2.7220   16.2190   10.6070 C   0  0  0  0  0  0  0  0  0  0  0  0
    7.2760   21.4440   18.1030 C   0  0  0  0  0  0  0  0  0  0  0  0
    8.4110   22.0710   18.5290 O   0  0  0  0  0  0  0  0  0  0  0  0
    7.1100   20.2680   20.1890 O   0  0  0  0  0  0  0  0  0  0  0  0
    6.7750   21.7220   16.8380 C   0  0  0  0  0  0  0  0  0  0  0  0
    3.2530   17.3890   10.0140 C   0  0  0  0  0  0  0  0  0  0  0  0
    3.0000   14.9630   10.0460 C   0  0  0  0  0  0  0  0  0  0  0  0
    2.9860   18.7280   10.5280 C   0  0  0  0  0  0  0  0  0  0  0  0
    4.0650   17.2560    8.8830 C   0  0  0  0  0  0  0  0  0  0  0  0
    3.9530   19.4180   10.9540 O   0  0  0  0  0  0  0  0  0  0  0  0
    1.8120   19.1850   10.5340 O   0  5  0  0  0  0  0  0  0  0  0  0
    4.3330   16.0120    8.3280 C   0  0  0  0  0  0  0  0  0  0  0  0
    5.2070   15.9160    7.1000 C   0  0  0  0  0  0  0  0  0  0  0  0
    3.7980   14.8670    8.9160 C   0  0  0  0  0  0  0  0  0  0  0  0
    3.3560   16.0800   21.6630 H   0  0  0  0  0  0  0  0  0  0  0  0
    1.1000   15.4720   22.2960 H   0  0  0  0  0  0  0  0  0  0  0  0
    3.7920   17.0950   19.5040 H   0  0  0  0  0  0  0  0  0  0  0  0
   -0.7580   15.7630   20.6970 H   0  0  0  0  0  0  0  0  0  0  0  0
   -0.3190   16.7290   18.4940 H   0  0  0  0  0  0  0  0  0  0  0  0
    1.1230   18.0620   17.1160 H   0  0  0  0  0  0  0  0  0  0  0  0
    3.1040   19.0760   18.6460 H   0  0  0  0  0  0  0  0  0  0  0  0
    1.1930   17.2550   15.1090 H   0  0  0  0  0  0  0  0  0  0  0  0
    3.5110   15.5620   14.3270 H   0  0  0  0  0  0  0  0  0  0  0  0
    2.2720   13.9200   13.4530 H   0  0  0  0  0  0  0  0  0  0  0  0
    0.8500   14.5380   14.3370 H   0  0  0  0  0  0  0  0  0  0  0  0
    2.1640   17.8620   13.1760 H   0  0  0  0  0  0  0  0  0  0  0  0
    3.6590   17.1190   12.7280 H   0  0  0  0  0  0  0  0  0  0  0  0
    5.0410   19.1390   19.1350 H   0  0  0  0  0  0  0  0  0  0  0  0
    0.9060   14.4500   11.6050 H   0  0  0  0  0  0  0  0  0  0  0  0
    0.0880   15.6920   12.4690 H   0  0  0  0  0  0  0  0  0  0  0  0
    4.3880   20.8130   14.9270 H   0  0  0  0  0  0  0  0  0  0  0  0
    8.6750   21.7220   19.4040 H   0  0  0  0  0  0  0  0  0  0  0  0
    6.6400   19.5120   20.5890 H   0  0  0  0  0  0  0  0  0  0  0  0
    7.2540   22.4320   16.2140 H   0  0  0  0  0  0  0  0  0  0  0  0
    2.6220   14.0780   10.4840 H   0  0  0  0  0  0  0  0  0  0  0  0
    4.4770   18.1260    8.4390 H   0  0  0  0  0  0  0  0  0  0  0  0
    6.2430   16.1080    7.3750 H   0  0  0  0  0  0  0  0  0  0  0  0
    5.1380   14.9290    6.6440 H   0  0  0  0  0  0  0  0  0  0  0  0
    4.9030   16.6540    6.3580 H   0  0  0  0  0  0  0  0  0  0  0  0
    4.0050   13.9140    8.5010 H   0  0  0  0  0  0  0  0  0  0  0  0
  1  2  2  0  0  0  0
  1  3  1  0  0  0  0
  1 38  1  0  0  0  0
  2  4  1  0  0  0  0
  2 39  1  0  0  0  0
  3  6  2  0  0  0  0
  3 40  1  0  0  0  0
  4  5  2  0  0  0  0
  4 41  1  0  0  0  0
  5  6  1  0  0  0  0
  5 42  1  0  0  0  0
  6  7  1  0  0  0  0
  7  8  1  0  0  0  0
  7  9  1  0  0  0  0
  7 43  1  0  0  0  0
  8 10  1  0  0  0  0
  8 44  1  0  0  0  0
  9 11  1  0  0  0  0
  9 14  2  0  0  0  0
 10 12  2  0  0  0  0
 10 13  1  0  0  0  0
 11 15  1  0  0  0  0
 11 45  1  0  0  0  0
 13 18  1  0  0  0  0
 13 20  2  0  0  0  0
 15 16  1  0  0  0  0
 15 17  1  0  0  0  0
 15 46  1  0  0  0  0
 16 19  1  0  0  0  0
 16 47  1  0  0  0  0
 16 48  1  0  0  0  0
 17 21  1  0  0  0  0
 17 49  1  0  0  0  0
 17 50  1  0  0  0  0
 18 22  2  0  0  0  0
 18 51  1  0  0  0  0
 19 21  1  0  0  0  0
 19 52  1  0  0  0  0
 19 53  1  0  0  0  0
 20 23  1  0  0  0  0
 20 28  1  0  0  0  0
 21 24  1  0  0  0  0
 22 25  1  0  0  0  0
 22 27  1  0  0  0  0
 23 54  1  0  0  0  0
 24 29  2  0  0  0  0
 24 30  1  0  0  0  0
 25 26  1  0  0  0  0
 25 28  2  0  0  0  0
 26 55  1  0  0  0  0
 27 56  1  0  0  0  0
 28 57  1  0  0  0  0
 29 31  1  0  0  0  0
 29 32  1  0  0  0  0
 30 37  2  0  0  0  0
 30 58  1  0  0  0  0
 31 33  2  0  0  0  0
 31 34  1  0  0  0  0
 32 35  2  0  0  0  0
 32 59  1  0  0  0  0
 35 36  1  0  0  0  0
 35 37  1  0  0  0  0
 36 60  1  0  0  0  0
 36 61  1  0  0  0  0
 36 62  1  0  0  0  0
 37 63  1  0  0  0  0
M  CHG  1  34  -1
M  END
> <rseq>
1

> <mseq>
477

> <S>
-7.382504

> <rmsd_refine>
1.423348

> <E_conf>
-76.04429

> <E_score1>
-11.39861

> <E_refine>
-40.10945

> <E_score2>
-7.382504

>  <$File>
outputs/pdb_4j58_cleaned.pdb_2024_06_17__22_47_40_V2_BS398_MIN1_/SDF/sdf_db.sdf

> <Rec_index>
1

>  <PLIF_raw>
[[8,14,33,33,26,26,26,26,26,26],[1504,954,823,829,1651,1655,1659,1657,1653,1650],[101,62,54,54,112,112,112,112,112,112],[3,2,7,7,10,10,10,10,10,10],[1,1.8,0.9693805616,4.388178704,2.1,2.1,2.1,2.1,2.1,2.1]]

> <FP:PLIF>
1 16 20 23 8 15 47

>  <PLIF_ligidx>
[[33,33],33,14,14,8,[26,26,26,26,26,26],[26,26,26,26,26,26]]

$$$$
477
  MOE2022           3D

 64 68  0  0  1  0  0  0  0  0999 V2000
    1.6580   16.1540   20.5360 C   0  0  0  0  0  0  0  0  0  0  0  0
    0.3330   15.7640   20.3760 C   0  0  0  0  0  0  0  0  0  0  0  0
    2.3260   16.7900   19.4940 C   0  0  0  0  0  0  0  0  0  0  0  0
   -0.3180   15.9930   19.1700 C   0  0  0  0  0  0  0  0  0  0  0  0
    0.3460   16.6360   18.1320 C   0  0  0  0  0  0  0  0  0  0  0  0
    1.6680   17.0520   18.2870 C   0  0  0  0  0  0  0  0  0  0  0  0
    2.3430   17.7710   17.1280 C   0  0  1  0  0  0  0  0  0  0  0  0
    3.4430   18.6350   17.5680 N   0  0  0  0  0  0  0  0  0  0  0  0
    2.7780   16.8070   16.0320 C   0  0  0  0  0  0  0  0  0  0  0  0
    3.9970   19.6420   16.8150 C   0  0  0  0  0  0  0  0  0  0  0  0
    2.1600   16.9400   14.8510 N   0  0  0  0  0  0  0  0  0  0  0  0
    3.4560   19.9210   15.7460 O   0  0  0  0  0  0  0  0  0  0  0  0
    5.2120   20.2930   17.3220 C   0  0  0  0  0  0  0  0  0  0  0  0
    3.6670   15.9740   16.2090 O   0  0  0  0  0  0  0  0  0  0  0  0
    2.5680   16.2440   13.6390 C   0  0  1  0  0  0  0  0  0  0  0  0
    1.9350   14.8740   13.5040 C   0  0  0  0  0  0  0  0  0  0  0  0
    2.1500   16.9560   12.3600 C   0  0  0  0  0  0  0  0  0  0  0  0
    5.6230   20.0810   18.6520 C   0  0  0  0  0  0  0  0  0  0  0  0
    1.7360   14.6720   11.9920 C   0  0  1  0  0  0  0  0  0  0  0  0
    6.0250   21.1200   16.5110 C   0  0  0  0  0  0  0  0  0  0  0  0
    2.0800   15.9460   11.2950 N   0  0  0  0  0  0  0  0  0  0  0  0
    6.8220   20.6080   19.1100 C   0  0  0  0  0  0  0  0  0  0  0  0
    5.6470   21.4600   15.2430 O   0  0  0  0  0  0  0  0  0  0  0  0
    3.2390   15.9590   10.4570 C   0  0  0  0  0  0  0  0  0  0  0  0
    7.6510   21.3480   18.2590 C   0  0  0  0  0  0  0  0  0  0  0  0
    8.8710   21.8090   18.6760 O   0  0  0  0  0  0  0  0  0  0  0  0
    7.1560   20.3940   20.4170 O   0  0  0  0  0  0  0  0  0  0  0  0
    7.2440   21.6270   16.9600 C   0  0  0  0  0  0  0  0  0  0  0  0
    3.4770   17.0400    9.5840 C   0  0  0  0  0  0  0  0  0  0  0  0
    4.1660   14.9010   10.5110 C   0  0  0  0  0  0  0  0  0  0  0  0
    2.4830   18.1750    9.4050 C   0  0  0  0  0  0  0  0  0  0  0  0
    4.6620   17.0710    8.8460 C   0  0  0  0  0  0  0  0  0  0  0  0
    3.8980   13.7680   11.2570 O   0  0  0  0  0  0  0  0  0  0  0  0
    2.5010   13.4640   11.4340 C   0  0  0  0  0  0  0  0  0  0  0  0
    5.3550   14.9750    9.7910 C   0  0  0  0  0  0  0  0  0  0  0  0
    6.2910   13.9790    9.8960 O   0  0  0  0  0  0  0  0  0  0  0  0
    5.6060   16.0540    8.9510 C   0  0  0  0  0  0  0  0  0  0  0  0
    2.1600   15.9710   21.4510 H   0  0  0  0  0  0  0  0  0  0  0  0
   -0.1840   15.2970   21.1690 H   0  0  0  0  0  0  0  0  0  0  0  0
    3.3360   17.0730   19.6320 H   0  0  0  0  0  0  0  0  0  0  0  0
   -1.3240   15.6850   19.0440 H   0  0  0  0  0  0  0  0  0  0  0  0
   -0.1630   16.8130   17.2190 H   0  0  0  0  0  0  0  0  0  0  0  0
    1.5920   18.4250   16.7070 H   0  0  0  0  0  0  0  0  0  0  0  0
    3.9080   18.3700   18.4480 H   0  0  0  0  0  0  0  0  0  0  0  0
    1.4360   17.6360   14.7580 H   0  0  0  0  0  0  0  0  0  0  0  0
    3.6510   16.1360   13.6060 H   0  0  0  0  0  0  0  0  0  0  0  0
    2.5800   14.1130   13.9420 H   0  0  0  0  0  0  0  0  0  0  0  0
    0.9610   14.8560   13.9950 H   0  0  0  0  0  0  0  0  0  0  0  0
    1.1710   17.4000   12.4860 H   0  0  0  0  0  0  0  0  0  0  0  0
    2.8360   17.7620   12.1380 H   0  0  0  0  0  0  0  0  0  0  0  0
    5.0270   19.5170   19.3210 H   0  0  0  0  0  0  0  0  0  0  0  0
    0.6830   14.4820   11.8320 H   0  0  0  0  0  0  0  0  0  0  0  0
    4.7500   21.1060   15.0590 H   0  0  0  0  0  0  0  0  0  0  0  0
    9.1280   21.4500   19.5470 H   0  0  0  0  0  0  0  0  0  0  0  0
    8.0360   20.7650   20.6220 H   0  0  0  0  0  0  0  0  0  0  0  0
    7.8510   22.2160   16.3220 H   0  0  0  0  0  0  0  0  0  0  0  0
    2.6460   18.9470   10.1570 H   0  0  0  0  0  0  0  0  0  0  0  0
    2.5940   18.6310    8.4210 H   0  0  0  0  0  0  0  0  0  0  0  0
    1.4570   17.8150    9.4840 H   0  0  0  0  0  0  0  0  0  0  0  0
    4.8510   17.8830    8.1910 H   0  0  0  0  0  0  0  0  0  0  0  0
    2.3980   12.6020   12.0930 H   0  0  0  0  0  0  0  0  0  0  0  0
    2.0920   13.2000   10.4580 H   0  0  0  0  0  0  0  0  0  0  0  0
    5.9720   13.2990   10.5240 H   0  0  0  0  0  0  0  0  0  0  0  0
    6.5020   16.0990    8.3890 H   0  0  0  0  0  0  0  0  0  0  0  0
  1  2  2  0  0  0  0
  1  3  1  0  0  0  0
  1 38  1  0  0  0  0
  2  4  1  0  0  0  0
  2 39  1  0  0  0  0
  3  6  2  0  0  0  0
  3 40  1  0  0  0  0
  4  5  2  0  0  0  0
  4 41  1  0  0  0  0
  5  6  1  0  0  0  0
  5 42  1  0  0  0  0
  6  7  1  0  0  0  0
  7  8  1  0  0  0  0
  7  9  1  0  0  0  0
  7 43  1  0  0  0  0
  8 10  1  0  0  0  0
  8 44  1  0  0  0  0
  9 11  1  0  0  0  0
  9 14  2  0  0  0  0
 10 12  2  0  0  0  0
 10 13  1  0  0  0  0
 11 15  1  0  0  0  0
 11 45  1  0  0  0  0
 13 18  1  0  0  0  0
 13 20  2  0  0  0  0
 15 16  1  0  0  0  0
 15 17  1  0  0  0  0
 15 46  1  0  0  0  0
 16 19  1  0  0  0  0
 16 47  1  0  0  0  0
 16 48  1  0  0  0  0
 17 21  1  0  0  0  0
 17 49  1  0  0  0  0
 17 50  1  0  0  0  0
 18 22  2  0  0  0  0
 18 51  1  0  0  0  0
 19 21  1  0  0  0  0
 19 34  1  0  0  0  0
 19 52  1  0  0  0  0
 20 23  1  0  0  0  0
 20 28  1  0  0  0  0
 21 24  1  0  0  0  0
 22 25  1  0  0  0  0
 22 27  1  0  0  0  0
 23 53  1  0  0  0  0
 24 29  1  0  0  0  0
 24 30  2  0  0  0  0
 25 26  1  0  0  0  0
 25 28  2  0  0  0  0
 26 54  1  0  0  0  0
 27 55  1  0  0  0  0
 28 56  1  0  0  0  0
 29 31  1  0  0  0  0
 29 32  2  0  0  0  0
 30 33  1  0  0  0  0
 30 35  1  0  0  0  0
 31 57  1  0  0  0  0
 31 58  1  0  0  0  0
 31 59  1  0  0  0  0
 32 37  1  0  0  0  0
 32 60  1  0  0  0  0
 33 34  1  0  0  0  0
 34 61  1  0  0  0  0
 34 62  1  0  0  0  0
 35 36  1  0  0  0  0
 35 37  2  0  0  0  0
 36 63  1  0  0  0  0
 37 64  1  0  0  0  0
M  END
> <rseq>
1

> <mseq>
478

> <S>
-7.541672

> <rmsd_refine>
1.570222

> <E_conf>
29.56344

> <E_score1>
-10.32373

> <E_refine>
-47.50153

> <E_score2>
-7.541672

>  <$File>
outputs/pdb_4j58_cleaned.pdb_2024_06_17__22_47_40_V2_BS398_MIN1_/SDF/sdf_db.sdf

> <Rec_index>
1

>  <PLIF_raw>
[[14,26,26,26,26,26,26,24,30,35,37,32,29,1,3,6,5,4,2],[954,1651,1655,1659,1657,1653,1650,823,823,823,823,823,823,1519,1519,1519,1519,1519,1519],[62,112,112,112,112,112,112,54,54,54,54,54,54,102,102,102,102,102,102],[2,10,10,10,10,10,10,10,10,10,10,10,10,10,10,10,10,10,10],[1.9,1.1,1.1,1.1,1.1,1.1,1.1,1.1,1.1,1.1,1.1,1.1,1.1,0.5,0.5,0.5,0.5,0.5,0.5]]

> <FP:PLIF>
2 5 20 23 22 15 47

>  <PLIF_ligidx>
[[24,30,35,37,32,29],[24,30,35,37,32,29],14,14,[1,3,6,5,4,2],[26,26,26,26,26,26],[26,26,26,26,26,26]]

$$$$
478
  MOE2022           3D

 62 66  0  0  1  0  0  0  0  0999 V2000
    6.5440   20.0110   19.1020 C   0  0  0  0  0  0  0  0  0  0  0  0
    7.5740   20.8250   18.6980 C   0  0  0  0  0  0  0  0  0  0  0  0
    5.4010   19.8450   18.2890 C   0  0  0  0  0  0  0  0  0  0  0  0
    4.3500   18.9780   18.6600 C   0  0  0  0  0  0  0  0  0  0  0  0
    3.2630   18.7970   17.8340 C   0  0  0  0  0  0  0  0  0  0  0  0
    7.5010   21.5170   17.4760 C   0  0  0  0  0  0  0  0  0  0  0  0
    8.6510   22.4160   17.0880 C   0  0  0  0  0  0  0  0  0  0  0  0
    6.3830   21.3890   16.6560 C   0  0  0  0  0  0  0  0  0  0  0  0
    3.2140   19.6090   16.6500 C   0  0  0  0  0  0  0  0  0  0  0  0
    6.2940   22.1180   15.3930 C   0  0  0  0  0  0  0  0  0  0  0  0
    2.2360   17.7980   18.1840 C   0  0  0  0  0  0  0  0  0  0  0  0
    7.0250   21.7690   14.4230 O   0  0  0  0  0  0  0  0  0  0  0  0
    5.5070   23.0950   15.2940 O   0  5  0  0  0  0  0  0  0  0  0  0
    2.2560   17.2690   19.3300 O   0  5  0  0  0  0  0  0  0  0  0  0
    1.3620   17.4300   17.3490 O   0  0  0  0  0  0  0  0  0  0  0  0
    2.0820   19.5910   15.8610 N   0  0  0  0  0  0  0  0  0  0  0  0
    5.3100   20.5410   17.0610 C   0  0  0  0  0  0  0  0  0  0  0  0
    1.8040   20.4420   14.7060 C   0  0  0  0  0  0  0  0  0  0  0  0
    4.1980   20.4010   16.2790 N   0  0  0  0  0  0  0  0  0  0  0  0
    1.3700   19.6250   13.4840 C   0  0  1  0  0  0  0  0  0  0  0  0
    2.4990   18.6870   13.0200 C   0  0  0  0  0  0  0  0  0  0  0  0
    0.1820   18.6910   13.7830 C   0  0  0  0  0  0  0  0  0  0  0  0
    0.7880   17.2910   13.8660 C   0  0  0  0  0  0  0  0  0  0  0  0
    1.9870   17.2770   12.9840 N   0  3  1  0  0  0  0  0  0  0  0  0
    1.6540   16.7810   11.6040 C   0  0  0  0  0  0  0  0  0  0  0  0
    2.7620   16.8700   10.5690 C   0  0  0  0  0  0  0  0  0  0  0  0
    3.7910   15.9010   10.4780 C   0  0  0  0  0  0  0  0  0  0  0  0
    3.9030   14.7630   11.3920 C   0  0  0  0  0  0  0  0  0  0  0  0
    3.1700   14.5370   12.3540 O   0  0  0  0  0  0  0  0  0  0  0  0
    4.9230   13.8570   11.1980 N   0  0  0  0  0  0  0  0  0  0  0  0
    4.7640   16.0240    9.4580 C   0  0  0  0  0  0  0  0  0  0  0  0
    5.8720   13.9900   10.1980 C   0  0  0  0  0  0  0  0  0  0  0  0
    4.7070   17.0990    8.5590 C   0  0  0  0  0  0  0  0  0  0  0  0
    5.8050   15.0400    9.3460 C   0  0  0  0  0  0  0  0  0  0  0  0
    2.7540   17.9340    9.6680 C   0  0  0  0  0  0  0  0  0  0  0  0
    1.7920   18.9070    9.7260 O   0  0  0  0  0  0  0  0  0  0  0  0
    3.7170   18.0540    8.6660 C   0  0  0  0  0  0  0  0  0  0  0  0
    6.6090   19.4990   20.0250 H   0  0  0  0  0  0  0  0  0  0  0  0
    8.4300   20.9340   19.3130 H   0  0  0  0  0  0  0  0  0  0  0  0
    4.4150   18.4540   19.5760 H   0  0  0  0  0  0  0  0  0  0  0  0
    9.4140   22.4430   17.8650 H   0  0  0  0  0  0  0  0  0  0  0  0
    9.1170   22.0670   16.1670 H   0  0  0  0  0  0  0  0  0  0  0  0
    8.2880   23.4310   16.9340 H   0  0  0  0  0  0  0  0  0  0  0  0
    1.3060   19.0030   16.2090 H   0  0  0  0  0  0  0  0  0  0  0  0
    1.0020   21.1340   14.9670 H   0  0  0  0  0  0  0  0  0  0  0  0
    2.6760   21.0380   14.4320 H   0  0  0  0  0  0  0  0  0  0  0  0
    1.1220   20.3000   12.6640 H   0  0  0  0  0  0  0  0  0  0  0  0
    2.8950   19.0240   12.0720 H   0  0  0  0  0  0  0  0  0  0  0  0
    3.3300   18.7850   13.7070 H   0  0  0  0  0  0  0  0  0  0  0  0
   -0.3430   18.9530   14.7030 H   0  0  0  0  0  0  0  0  0  0  0  0
   -0.5160   18.7190   12.9450 H   0  0  0  0  0  0  0  0  0  0  0  0
    1.0620   17.1020   14.8960 H   0  0  0  0  0  0  0  0  0  0  0  0
    0.0540   16.5340   13.6240 H   0  0  0  0  0  0  0  0  0  0  0  0
    2.6770   16.6550   13.3850 H   0  0  0  0  0  0  0  0  0  0  0  0
    1.3120   15.7550   11.6370 H   0  0  0  0  0  0  0  0  0  0  0  0
    0.7920   17.3030   11.2120 H   0  0  0  0  0  0  0  0  0  0  0  0
    4.9770   13.0530   11.8490 H   0  0  0  0  0  0  0  0  0  0  0  0
    6.6110   13.2290   10.1690 H   0  0  0  0  0  0  0  0  0  0  0  0
    5.4320   17.1750    7.7930 H   0  0  0  0  0  0  0  0  0  0  0  0
    6.5210   15.1490    8.5750 H   0  0  0  0  0  0  0  0  0  0  0  0
    1.1370   18.7410   10.4300 H   0  0  0  0  0  0  0  0  0  0  0  0
    3.6840   18.8700    7.9900 H   0  0  0  0  0  0  0  0  0  0  0  0
  1  2  1  0  0  0  0
  1  3  2  0  0  0  0
  1 38  1  0  0  0  0
  2  6  2  0  0  0  0
  2 39  1  0  0  0  0
  3  4  1  0  0  0  0
  3 17  1  0  0  0  0
  4  5  2  0  0  0  0
  4 40  1  0  0  0  0
  5  9  1  0  0  0  0
  5 11  1  0  0  0  0
  6  7  1  0  0  0  0
  6  8  1  0  0  0  0
  7 41  1  0  0  0  0
  7 42  1  0  0  0  0
  7 43  1  0  0  0  0
  8 10  1  0  0  0  0
  8 17  2  0  0  0  0
  9 16  1  0  0  0  0
  9 19  2  0  0  0  0
 10 12  2  0  0  0  0
 10 13  1  0  0  0  0
 11 14  1  0  0  0  0
 11 15  2  0  0  0  0
 16 18  1  0  0  0  0
 16 44  1  0  0  0  0
 17 19  1  0  0  0  0
 18 20  1  0  0  0  0
 18 45  1  0  0  0  0
 18 46  1  0  0  0  0
 20 21  1  0  0  0  0
 20 22  1  0  0  0  0
 20 47  1  0  0  0  0
 21 24  1  0  0  0  0
 21 48  1  0  0  0  0
 21 49  1  0  0  0  0
 22 23  1  0  0  0  0
 22 50  1  0  0  0  0
 22 51  1  0  0  0  0
 23 24  1  0  0  0  0
 23 52  1  0  0  0  0
 23 53  1  0  0  0  0
 24 25  1  0  0  0  0
 24 54  1  0  0  0  0
 25 26  1  0  0  0  0
 25 55  1  0  0  0  0
 25 56  1  0  0  0  0
 26 27  1  0  0  0  0
 26 35  2  0  0  0  0
 27 28  1  0  0  0  0
 27 31  2  0  0  0  0
 28 29  2  0  0  0  0
 28 30  1  0  0  0  0
 30 32  1  0  0  0  0
 30 57  1  0  0  0  0
 31 33  1  0  0  0  0
 31 34  1  0  0  0  0
 32 34  2  0  0  0  0
 32 58  1  0  0  0  0
 33 37  2  0  0  0  0
 33 59  1  0  0  0  0
 34 60  1  0  0  0  0
 35 36  1  0  0  0  0
 35 37  1  0  0  0  0
 36 61  1  0  0  0  0
 37 62  1  0  0  0  0
M  CHG  1  13  -1
M  CHG  1  14  -1
M  CHG  1  24   1
M  END
> <rseq>
1

> <mseq>
479

> <S>
-6.289496

> <rmsd_refine>
1.273752

> <E_conf>
-249.6195

> <E_score1>
-11.41226

> <E_refine>
-39.86247

> <E_score2>
-6.289496

>  <$File>
outputs/pdb_4j58_cleaned.pdb_2024_06_17__22_47_40_V2_BS398_MIN1_/SDF/sdf_db.sdf

> <Rec_index>
1

>  <PLIF_raw>
[[30,12,12,12,12,27,28,30,32,34,31,27,28,30,32,34,31,26,35,37,33,31,27],[1056,826,829,826,829,820,820,820,820,820,820,823,823,823,823,823,823,823,823,823,823,823,823],[70,54,54,54,54,54,54,54,54,54,54,54,54,54,54,54,54,54,54,54,54,54,54],[3,2,2,7,7,10,10,10,10,10,10,10,10,10,10,10,10,10,10,10,10,10,10],[4.9,6.5,0.7,5.318328315,2.315025652,0.5,0.5,0.5,0.5,0.5,0.5,1,1,1,1,1,1,0.7,0.7,0.7,0.7,0.7,0.7]]

> <FP:PLIF>
6 19 1 16 2 5 3 4

>  <PLIF_ligidx>
[[12,12],12,[12,12],12,[27,28,30,32,34,31,27,28,30,32,34,31,26,35,37,33,31,27],[27,28,30,32,34,31],30,30]

$$$$
479
  MOE2022           3D

 69 72  0  0  1  0  0  0  0  0999 V2000
    2.2850   16.4500   18.9450 O   0  0  0  0  0  0  0  0  0  0  0  0
    1.3870   16.5950   18.1170 C   0  0  0  0  0  0  0  0  0  0  0  0
    1.6500   17.2890   16.9620 N   0  0  0  0  0  0  0  0  0  0  0  0
    0.0410   16.0460   18.2870 C   0  0  0  0  0  0  0  0  0  0  0  0
   -1.0700   16.6340   17.6610 C   0  0  0  0  0  0  0  0  0  0  0  0
   -2.3380   16.0840   17.8070 C   0  0  0  0  0  0  0  0  0  0  0  0
   -0.1590   14.9030   19.0740 C   0  0  0  0  0  0  0  0  0  0  0  0
    2.9680   17.7630   16.5540 C   0  0  1  0  0  0  0  0  0  0  0  0
   -1.4280   14.3500   19.2100 C   0  0  0  0  0  0  0  0  0  0  0  0
   -2.5180   14.9400   18.5780 C   0  0  0  0  0  0  0  0  0  0  0  0
    3.0690   17.8340   15.0280 C   0  0  0  0  0  0  0  0  0  0  0  0
    2.8490   16.6920   14.2420 C   0  0  0  0  0  0  0  0  0  0  0  0
    2.6280   15.4750   14.8230 O   0  0  0  0  0  0  0  0  0  0  0  0
    2.8560   16.7440   12.8520 C   0  0  0  0  0  0  0  0  0  0  0  0
    3.1060   17.9630   12.2320 C   0  0  0  0  0  0  0  0  0  0  0  0
    3.2990   19.0860   17.2780 C   0  0  0  0  0  0  0  0  0  0  0  0
    3.0570   18.0720   10.8600 O   0  0  0  0  0  0  0  0  0  0  0  0
    3.3840   19.1030   12.9850 C   0  0  0  0  0  0  0  0  0  0  0  0
    4.3590   19.9290   16.5530 C   0  0  1  0  0  0  0  0  0  0  0  0
    3.3880   19.0360   14.3800 C   0  0  0  0  0  0  0  0  0  0  0  0
    4.0840   17.5170    9.9910 C   0  0  0  0  0  0  0  0  0  0  0  0
    3.7480   20.2730   15.1820 C   0  0  0  0  0  0  0  0  0  0  0  0
    3.9240   16.0420    9.6560 C   0  0  0  0  0  0  0  0  0  0  0  0
    4.7640   21.2070   17.3240 C   0  0  0  0  0  0  0  0  0  0  0  0
    2.8820   15.4310    9.8420 O   0  0  0  0  0  0  0  0  0  0  0  0
    4.9970   15.3790    9.0970 N   0  0  0  0  0  0  0  0  0  0  0  0
    6.1300   16.0900    8.7040 O   0  0  0  0  0  0  0  0  0  0  0  0
    6.0340   21.0660   18.1960 C   0  0  0  0  0  0  0  0  0  0  0  0
    6.4310   22.4470   18.7420 C   0  0  0  0  0  0  0  0  0  0  0  0
    5.8730   20.0880   19.3690 C   0  0  0  0  0  0  0  0  0  0  0  0
    5.0680   13.9780    8.9120 C   0  0  0  0  0  0  0  0  0  0  0  0
    4.8990   13.4390    7.6370 C   0  0  0  0  0  0  0  0  0  0  0  0
    4.9930   12.0600    7.4620 C   0  0  0  0  0  0  0  0  0  0  0  0
    5.3210   13.1390   10.0040 C   0  0  0  0  0  0  0  0  0  0  0  0
    5.2650   11.2270    8.5490 C   0  0  0  0  0  0  0  0  0  0  0  0
    5.4610   13.6630   11.2610 O   0  0  0  0  0  0  0  0  0  0  0  0
    5.4330   11.7650    9.8240 C   0  0  0  0  0  0  0  0  0  0  0  0
    0.8980   17.3770   16.2640 H   0  0  0  0  0  0  0  0  0  0  0  0
   -0.9520   17.5070   17.0720 H   0  0  0  0  0  0  0  0  0  0  0  0
   -3.1690   16.5360   17.3300 H   0  0  0  0  0  0  0  0  0  0  0  0
    0.6660   14.4480   19.5560 H   0  0  0  0  0  0  0  0  0  0  0  0
    3.6950   17.0280   16.8610 H   0  0  0  0  0  0  0  0  0  0  0  0
   -1.5700   13.4750   19.7880 H   0  0  0  0  0  0  0  0  0  0  0  0
   -3.4840   14.5170   18.6820 H   0  0  0  0  0  0  0  0  0  0  0  0
    2.4640   14.7930   14.1420 H   0  0  0  0  0  0  0  0  0  0  0  0
    2.6600   15.8740   12.2840 H   0  0  0  0  0  0  0  0  0  0  0  0
    2.3850   19.6780   17.3640 H   0  0  0  0  0  0  0  0  0  0  0  0
    3.6240   18.8470   18.2890 H   0  0  0  0  0  0  0  0  0  0  0  0
    3.5930   20.0180   12.4930 H   0  0  0  0  0  0  0  0  0  0  0  0
    5.2470   19.3200   16.3920 H   0  0  0  0  0  0  0  0  0  0  0  0
    4.1010   18.0860    9.0710 H   0  0  0  0  0  0  0  0  0  0  0  0
    5.0510   17.6960   10.4370 H   0  0  0  0  0  0  0  0  0  0  0  0
    2.8500   20.8780   15.3170 H   0  0  0  0  0  0  0  0  0  0  0  0
    4.4700   20.8590   14.6120 H   0  0  0  0  0  0  0  0  0  0  0  0
    4.9640   21.9950   16.5970 H   0  0  0  0  0  0  0  0  0  0  0  0
    3.9280   21.5430   17.9410 H   0  0  0  0  0  0  0  0  0  0  0  0
    6.7470   15.4280    8.3330 H   0  0  0  0  0  0  0  0  0  0  0  0
    6.8520   20.7100   17.5670 H   0  0  0  0  0  0  0  0  0  0  0  0
    7.3250   22.3630   19.3610 H   0  0  0  0  0  0  0  0  0  0  0  0
    6.6460   23.1250   17.9150 H   0  0  0  0  0  0  0  0  0  0  0  0
    5.6160   22.8610   19.3360 H   0  0  0  0  0  0  0  0  0  0  0  0
    6.7660   20.1060   19.9950 H   0  0  0  0  0  0  0  0  0  0  0  0
    5.0060   20.3590   19.9700 H   0  0  0  0  0  0  0  0  0  0  0  0
    5.7500   19.0760   18.9900 H   0  0  0  0  0  0  0  0  0  0  0  0
    4.6970   14.0710    6.8100 H   0  0  0  0  0  0  0  0  0  0  0  0
    4.8570   11.6400    6.4990 H   0  0  0  0  0  0  0  0  0  0  0  0
    5.3410   10.1800    8.4050 H   0  0  0  0  0  0  0  0  0  0  0  0
    5.4880   12.9510   11.9330 H   0  0  0  0  0  0  0  0  0  0  0  0
    5.6450   11.1330   10.6480 H   0  0  0  0  0  0  0  0  0  0  0  0
  1  2  2  0  0  0  0
  2  3  1  0  0  0  0
  2  4  1  0  0  0  0
  3  8  1  0  0  0  0
  3 38  1  0  0  0  0
  4  5  2  0  0  0  0
  4  7  1  0  0  0  0
  5  6  1  0  0  0  0
  5 39  1  0  0  0  0
  6 10  2  0  0  0  0
  6 40  1  0  0  0  0
  7  9  2  0  0  0  0
  7 41  1  0  0  0  0
  8 11  1  0  0  0  0
  8 16  1  0  0  0  0
  8 42  1  0  0  0  0
  9 10  1  0  0  0  0
  9 43  1  0  0  0  0
 10 44  1  0  0  0  0
 11 12  1  0  0  0  0
 11 20  2  0  0  0  0
 12 13  1  0  0  0  0
 12 14  2  0  0  0  0
 13 45  1  0  0  0  0
 14 15  1  0  0  0  0
 14 46  1  0  0  0  0
 15 17  1  0  0  0  0
 15 18  2  0  0  0  0
 16 19  1  0  0  0  0
 16 47  1  0  0  0  0
 16 48  1  0  0  0  0
 17 21  1  0  0  0  0
 18 20  1  0  0  0  0
 18 49  1  0  0  0  0
 19 22  1  0  0  0  0
 19 24  1  0  0  0  0
 19 50  1  0  0  0  0
 20 22  1  0  0  0  0
 21 23  1  0  0  0  0
 21 51  1  0  0  0  0
 21 52  1  0  0  0  0
 22 53  1  0  0  0  0
 22 54  1  0  0  0  0
 23 25  2  0  0  0  0
 23 26  1  0  0  0  0
 24 28  1  0  0  0  0
 24 55  1  0  0  0  0
 24 56  1  0  0  0  0
 26 27  1  0  0  0  0
 26 31  1  0  0  0  0
 27 57  1  0  0  0  0
 28 29  1  0  0  0  0
 28 30  1  0  0  0  0
 28 58  1  0  0  0  0
 29 59  1  0  0  0  0
 29 60  1  0  0  0  0
 29 61  1  0  0  0  0
 30 62  1  0  0  0  0
 30 63  1  0  0  0  0
 30 64  1  0  0  0  0
 31 32  1  0  0  0  0
 31 34  2  0  0  0  0
 32 33  2  0  0  0  0
 32 65  1  0  0  0  0
 33 35  1  0  0  0  0
 33 66  1  0  0  0  0
 34 36  1  0  0  0  0
 34 37  1  0  0  0  0
 35 37  2  0  0  0  0
 35 67  1  0  0  0  0
 36 68  1  0  0  0  0
 37 69  1  0  0  0  0
M  END
> <rseq>
1

> <mseq>
480

> <S>
-7.209112

> <rmsd_refine>
1.872485

> <E_conf>
7.694993

> <E_score1>
-12.93856

> <E_refine>
-40.21483

> <E_score2>
-7.209112

>  <$File>
outputs/pdb_4j58_cleaned.pdb_2024_06_17__22_47_40_V2_BS398_MIN1_/SDF/sdf_db.sdf

> <Rec_index>
1

>  <PLIF_raw>
[36,1056,70,3,2.5]

> <FP:PLIF>
3 4

>  <PLIF_ligidx>
[36,36]

$$$$
480
  MOE2022           3D

 65 68  0  0  1  0  0  0  0  0999 V2000
    3.7080   17.9120   19.4740 O   0  0  0  0  0  0  0  0  0  0  0  0
    2.8040   17.5900   18.6950 C   0  0  0  0  0  0  0  0  0  0  0  0
    1.6470   16.8250   19.0790 C   0  0  0  0  0  0  0  0  0  0  0  0
    2.9080   17.9610   17.3500 N   0  0  0  0  0  0  0  0  0  0  0  0
    0.7110   16.5160   18.1370 C   0  0  0  0  0  0  0  0  0  0  0  0
    1.9560   17.5040   16.4210 C   0  0  0  0  0  0  0  0  0  0  0  0
    0.8970   16.8600   16.8190 N   0  0  0  0  0  0  0  0  0  0  0  0
    2.2310   17.6900   15.0070 C   0  0  0  0  0  0  0  0  0  0  0  0
    4.0650   18.7920   16.8900 C   0  0  0  0  0  0  0  0  0  0  0  0
    1.5050   16.3650   20.5220 C   0  0  0  0  0  0  0  0  0  0  0  0
   -0.5460   15.7270   18.4450 C   0  0  0  0  0  0  0  0  0  0  0  0
    3.8100   20.3090   16.7700 C   0  0  1  0  0  0  0  0  0  0  0  0
    4.0980   21.0700   18.0660 C   0  0  0  0  0  0  0  0  0  0  0  0
    1.8570   18.8550   14.3200 C   0  0  0  0  0  0  0  0  0  0  0  0
    4.8050   20.9540   15.8150 C   0  0  0  0  0  0  0  0  0  0  0  0
    2.1930   19.0260   12.9800 C   0  0  0  0  0  0  0  0  0  0  0  0
    2.8910   18.0170   12.3110 C   0  0  0  0  0  0  0  0  0  0  0  0
    4.6990   20.8750   14.5910 O   0  0  0  0  0  0  0  0  0  0  0  0
    2.9040   16.6830   14.2930 C   0  0  0  0  0  0  0  0  0  0  0  0
    5.5200   21.6590   17.9350 C   0  0  1  0  0  0  0  0  0  0  0  0
    5.7730   21.5940   16.4800 N   0  0  0  0  0  0  0  0  0  0  0  0
    6.9180   22.2400   15.8310 C   0  0  0  0  0  0  0  0  0  0  0  0
    5.5310   23.1340   18.3920 C   0  0  0  0  0  0  0  0  0  0  0  0
    3.2710   18.2130   11.0140 O   0  0  0  0  0  0  0  0  0  0  0  0
    3.2580   15.5250   14.9170 O   0  0  0  0  0  0  0  0  0  0  0  0
    2.5620   17.6140    9.8900 C   0  0  1  0  0  0  0  0  0  0  0  0
    6.5090   20.8230   18.7750 C   0  0  0  0  0  0  0  0  0  0  0  0
    2.9090   18.3760    8.6280 C   0  0  0  0  0  0  0  0  0  0  0  0
    3.2380   16.8350   12.9560 C   0  0  0  0  0  0  0  0  0  0  0  0
    2.9340   16.1300    9.7120 C   0  0  0  0  0  0  0  0  0  0  0  0
    6.4210   20.9030   20.0240 O   0  0  0  0  0  0  0  0  0  0  0  0
    7.3350   20.0860   18.1920 O   0  5  0  0  0  0  0  0  0  0  0  0
    2.1960   19.2790    8.2460 O   0  0  0  0  0  0  0  0  0  0  0  0
    4.3750   15.9660    9.2560 C   0  0  0  0  0  0  0  0  0  0  0  0
    4.8310   16.9090    8.2500 C   0  0  0  0  0  0  0  0  0  0  0  0
    4.1190   18.0210    7.9260 C   0  0  0  0  0  0  0  0  0  0  0  0
    5.1650   14.9860    9.7380 C   0  0  0  0  0  0  0  0  0  0  0  0
    4.9210   18.6590   17.5340 H   0  0  0  0  0  0  0  0  0  0  0  0
    4.4260   18.4230   15.9400 H   0  0  0  0  0  0  0  0  0  0  0  0
    0.7070   16.8950   21.0220 H   0  0  0  0  0  0  0  0  0  0  0  0
    1.2830   15.3080   20.5700 H   0  0  0  0  0  0  0  0  0  0  0  0
    2.4070   16.5130   21.0980 H   0  0  0  0  0  0  0  0  0  0  0  0
   -0.9930   16.0220   19.3830 H   0  0  0  0  0  0  0  0  0  0  0  0
   -1.2980   15.8650   17.6800 H   0  0  0  0  0  0  0  0  0  0  0  0
   -0.3340   14.6680   18.4990 H   0  0  0  0  0  0  0  0  0  0  0  0
    2.7890   20.4910   16.4370 H   0  0  0  0  0  0  0  0  0  0  0  0
    3.3630   21.8700   18.1680 H   0  0  0  0  0  0  0  0  0  0  0  0
    4.0330   20.4170   18.9290 H   0  0  0  0  0  0  0  0  0  0  0  0
    1.3240   19.6160   14.8280 H   0  0  0  0  0  0  0  0  0  0  0  0
    1.9280   19.9160   12.4700 H   0  0  0  0  0  0  0  0  0  0  0  0
    6.7790   23.3100   15.7680 H   0  0  0  0  0  0  0  0  0  0  0  0
    7.8320   22.0610   16.3800 H   0  0  0  0  0  0  0  0  0  0  0  0
    7.0720   21.8740   14.8260 H   0  0  0  0  0  0  0  0  0  0  0  0
    5.1480   23.2210   19.4060 H   0  0  0  0  0  0  0  0  0  0  0  0
    6.5450   23.5330   18.3740 H   0  0  0  0  0  0  0  0  0  0  0  0
    4.9060   23.7480   17.7420 H   0  0  0  0  0  0  0  0  0  0  0  0
    3.6380   14.8840   14.2850 H   0  0  0  0  0  0  0  0  0  0  0  0
    1.5020   17.7070   10.0880 H   0  0  0  0  0  0  0  0  0  0  0  0
    3.7660   16.0740   12.4450 H   0  0  0  0  0  0  0  0  0  0  0  0
    2.7200   15.5600   10.6030 H   0  0  0  0  0  0  0  0  0  0  0  0
    2.2860   15.7080    8.9550 H   0  0  0  0  0  0  0  0  0  0  0  0
    5.7460   16.6990    7.7580 H   0  0  0  0  0  0  0  0  0  0  0  0
    4.4380   18.6680    7.1510 H   0  0  0  0  0  0  0  0  0  0  0  0
    6.1670   14.8600    9.4140 H   0  0  0  0  0  0  0  0  0  0  0  0
    4.8260   14.2910   10.4630 H   0  0  0  0  0  0  0  0  0  0  0  0
  1  2  2  0  0  0  0
  2  3  1  0  0  0  0
  2  4  1  0  0  0  0
  3  5  2  0  0  0  0
  3 10  1  0  0  0  0
  4  6  1  0  0  0  0
  4  9  1  0  0  0  0
  5  7  1  0  0  0  0
  5 11  1  0  0  0  0
  6  7  2  0  0  0  0
  6  8  1  0  0  0  0
  8 14  1  0  0  0  0
  8 19  2  0  0  0  0
  9 12  1  0  0  0  0
  9 38  1  0  0  0  0
  9 39  1  0  0  0  0
 10 40  1  0  0  0  0
 10 41  1  0  0  0  0
 10 42  1  0  0  0  0
 11 43  1  0  0  0  0
 11 44  1  0  0  0  0
 11 45  1  0  0  0  0
 12 13  1  0  0  0  0
 12 15  1  0  0  0  0
 12 46  1  0  0  0  0
 13 20  1  0  0  0  0
 13 47  1  0  0  0  0
 13 48  1  0  0  0  0
 14 16  2  0  0  0  0
 14 49  1  0  0  0  0
 15 18  2  0  0  0  0
 15 21  1  0  0  0  0
 16 17  1  0  0  0  0
 16 50  1  0  0  0  0
 17 24  1  0  0  0  0
 17 29  2  0  0  0  0
 19 25  1  0  0  0  0
 19 29  1  0  0  0  0
 20 21  1  0  0  0  0
 20 23  1  0  0  0  0
 20 27  1  0  0  0  0
 21 22  1  0  0  0  0
 22 51  1  0  0  0  0
 22 52  1  0  0  0  0
 22 53  1  0  0  0  0
 23 54  1  0  0  0  0
 23 55  1  0  0  0  0
 23 56  1  0  0  0  0
 24 26  1  0  0  0  0
 25 57  1  0  0  0  0
 26 28  1  0  0  0  0
 26 30  1  0  0  0  0
 26 58  1  0  0  0  0
 27 31  2  0  0  0  0
 27 32  1  0  0  0  0
 28 33  2  0  0  0  0
 28 36  1  0  0  0  0
 29 59  1  0  0  0  0
 30 34  1  0  0  0  0
 30 60  1  0  0  0  0
 30 61  1  0  0  0  0
 34 35  1  0  0  0  0
 34 37  2  0  0  0  0
 35 36  2  0  0  0  0
 35 62  1  0  0  0  0
 36 63  1  0  0  0  0
 37 64  1  0  0  0  0
 37 65  1  0  0  0  0
M  CHG  1  32  -1
M  END
> <rseq>
1

> <mseq>
481

> <S>
-6.742732

> <rmsd_refine>
1.307652

> <E_conf>
-48.11086

> <E_score1>
-13.75271

> <E_refine>
-36.49027

> <E_score2>
-6.742732

>  <$File>
outputs/pdb_4j58_cleaned.pdb_2024_06_17__22_47_40_V2_BS398_MIN1_/SDF/sdf_db.sdf

> <Rec_index>
1

>  <PLIF_raw>
[[31,31],[1866,1872],[125,125],[7,7],[1.048635257,1.086745471]]

> <FP:PLIF>
13

>  <PLIF_ligidx>
[[31,31]]

$$$$
499
  MOE2022           3D

 64 67  0  0  1  0  0  0  0  0999 V2000
    2.4450   16.3280   20.8190 C   0  0  0  0  0  0  0  0  0  0  0  0
    1.1270   15.9340   20.9900 C   0  0  0  0  0  0  0  0  0  0  0  0
    2.8360   16.9570   19.6440 C   0  0  0  0  0  0  0  0  0  0  0  0
    0.2000   16.1490   19.9760 C   0  0  0  0  0  0  0  0  0  0  0  0
    0.5930   16.7700   18.7950 C   0  0  0  0  0  0  0  0  0  0  0  0
    1.9130   17.1870   18.6210 C   0  0  0  0  0  0  0  0  0  0  0  0
    2.3250   17.8370   17.3080 C   0  0  1  0  0  0  0  0  0  0  0  0
    3.4360   18.7800   17.4990 N   0  0  0  0  0  0  0  0  0  0  0  0
    2.6050   16.7640   16.2620 C   0  0  0  0  0  0  0  0  0  0  0  0
    4.0720   19.4840   16.5050 C   0  0  0  0  0  0  0  0  0  0  0  0
    1.7620   16.7110   15.2220 N   0  0  0  0  0  0  0  0  0  0  0  0
    3.6120   19.4150   15.3660 O   0  0  0  0  0  0  0  0  0  0  0  0
    5.2670   20.2570   16.8600 C   0  0  0  0  0  0  0  0  0  0  0  0
    3.5350   15.9650   16.3800 O   0  0  0  0  0  0  0  0  0  0  0  0
    1.7240   15.6060   14.2750 C   0  0  1  0  0  0  0  0  0  0  0  0
    0.3530   15.5450   13.5870 C   0  0  0  0  0  0  0  0  0  0  0  0
    2.7130   15.8150   13.1210 C   0  0  0  0  0  0  0  0  0  0  0  0
    5.9620   19.9770   18.0530 C   0  0  0  0  0  0  0  0  0  0  0  0
    0.5700   16.3340   12.2990 C   0  0  0  0  0  0  0  0  0  0  0  0
    5.7880   21.2700   16.0200 C   0  0  0  0  0  0  0  0  0  0  0  0
    1.9520   16.1250   11.9170 N   0  0  0  0  0  0  0  0  0  0  0  0
    7.1360   20.6520   18.3570 C   0  0  0  0  0  0  0  0  0  0  0  0
    5.1630   21.6130   14.8550 O   0  0  0  0  0  0  0  0  0  0  0  0
    7.8030   20.3400   19.5110 O   0  0  0  0  0  0  0  0  0  0  0  0
    7.6400   21.6320   17.4970 C   0  0  0  0  0  0  0  0  0  0  0  0
    8.8040   22.2730   17.7990 O   0  0  0  0  0  0  0  0  0  0  0  0
    6.9640   21.9540   16.3280 C   0  0  0  0  0  0  0  0  0  0  0  0
    2.3610   15.8600   10.6240 C   0  0  0  0  0  0  0  0  0  0  0  0
    1.6040   16.1370    9.6960 O   0  0  0  0  0  0  0  0  0  0  0  0
    3.6640   15.2420   10.4110 C   0  0  0  0  0  0  0  0  0  0  0  0
    4.7780   16.0230   10.0680 C   0  0  0  0  0  0  0  0  0  0  0  0
    3.8360   13.8510   10.5500 C   0  0  0  0  0  0  0  0  0  0  0  0
    4.6480   17.3700    9.9000 O   0  0  0  0  0  0  0  0  0  0  0  0
    2.6610   12.9440   10.8720 C   0  0  0  0  0  0  0  0  0  0  0  0
    6.0370   15.4580    9.8990 C   0  0  0  0  0  0  0  0  0  0  0  0
    6.1990   14.0910   10.0770 C   0  0  0  0  0  0  0  0  0  0  0  0
    5.1030   13.2920   10.3970 C   0  0  0  0  0  0  0  0  0  0  0  0
    3.1530   16.1480   21.5850 H   0  0  0  0  0  0  0  0  0  0  0  0
    0.8370   15.4750   21.8920 H   0  0  0  0  0  0  0  0  0  0  0  0
    3.8430   17.2540   19.5370 H   0  0  0  0  0  0  0  0  0  0  0  0
   -0.8060   15.8420   20.1030 H   0  0  0  0  0  0  0  0  0  0  0  0
   -0.1180   16.9240   18.0240 H   0  0  0  0  0  0  0  0  0  0  0  0
    1.4820   18.4240   16.9670 H   0  0  0  0  0  0  0  0  0  0  0  0
    3.7480   18.9170   18.4720 H   0  0  0  0  0  0  0  0  0  0  0  0
    1.0430   17.4140   15.1370 H   0  0  0  0  0  0  0  0  0  0  0  0
    1.9260   14.6650   14.7850 H   0  0  0  0  0  0  0  0  0  0  0  0
    0.1320   14.5110   13.3270 H   0  0  0  0  0  0  0  0  0  0  0  0
   -0.4490   15.9650   14.1960 H   0  0  0  0  0  0  0  0  0  0  0  0
    3.4000   16.6310   13.3530 H   0  0  0  0  0  0  0  0  0  0  0  0
    3.2900   14.9000   12.9960 H   0  0  0  0  0  0  0  0  0  0  0  0
    5.6100   19.2350   18.7220 H   0  0  0  0  0  0  0  0  0  0  0  0
   -0.1270   15.9930   11.5320 H   0  0  0  0  0  0  0  0  0  0  0  0
    0.4070   17.3950   12.4910 H   0  0  0  0  0  0  0  0  0  0  0  0
    4.3570   21.0670   14.7300 H   0  0  0  0  0  0  0  0  0  0  0  0
    7.3690   19.6000   19.9770 H   0  0  0  0  0  0  0  0  0  0  0  0
    9.1780   21.9060   18.6260 H   0  0  0  0  0  0  0  0  0  0  0  0
    7.3380   22.7050   15.6800 H   0  0  0  0  0  0  0  0  0  0  0  0
    5.4670   17.7630    9.5360 H   0  0  0  0  0  0  0  0  0  0  0  0
    1.7900   13.2050   10.2710 H   0  0  0  0  0  0  0  0  0  0  0  0
    2.9000   11.9020   10.6610 H   0  0  0  0  0  0  0  0  0  0  0  0
    2.3880   13.0210   11.9250 H   0  0  0  0  0  0  0  0  0  0  0  0
    6.8630   16.0660    9.6430 H   0  0  0  0  0  0  0  0  0  0  0  0
    7.1560   13.6510    9.9700 H   0  0  0  0  0  0  0  0  0  0  0  0
    5.2420   12.2490   10.5240 H   0  0  0  0  0  0  0  0  0  0  0  0
  1  2  2  0  0  0  0
  1  3  1  0  0  0  0
  1 38  1  0  0  0  0
  2  4  1  0  0  0  0
  2 39  1  0  0  0  0
  3  6  2  0  0  0  0
  3 40  1  0  0  0  0
  4  5  2  0  0  0  0
  4 41  1  0  0  0  0
  5  6  1  0  0  0  0
  5 42  1  0  0  0  0
  6  7  1  0  0  0  0
  7  8  1  0  0  0  0
  7  9  1  0  0  0  0
  7 43  1  0  0  0  0
  8 10  1  0  0  0  0
  8 44  1  0  0  0  0
  9 11  1  0  0  0  0
  9 14  2  0  0  0  0
 10 12  2  0  0  0  0
 10 13  1  0  0  0  0
 11 15  1  0  0  0  0
 11 45  1  0  0  0  0
 13 18  1  0  0  0  0
 13 20  2  0  0  0  0
 15 16  1  0  0  0  0
 15 17  1  0  0  0  0
 15 46  1  0  0  0  0
 16 19  1  0  0  0  0
 16 47  1  0  0  0  0
 16 48  1  0  0  0  0
 17 21  1  0  0  0  0
 17 49  1  0  0  0  0
 17 50  1  0  0  0  0
 18 22  2  0  0  0  0
 18 51  1  0  0  0  0
 19 21  1  0  0  0  0
 19 52  1  0  0  0  0
 19 53  1  0  0  0  0
 20 23  1  0  0  0  0
 20 27  1  0  0  0  0
 21 28  1  0  0  0  0
 22 24  1  0  0  0  0
 22 25  1  0  0  0  0
 23 54  1  0  0  0  0
 24 55  1  0  0  0  0
 25 26  1  0  0  0  0
 25 27  2  0  0  0  0
 26 56  1  0  0  0  0
 27 57  1  0  0  0  0
 28 29  2  0  0  0  0
 28 30  1  0  0  0  0
 30 31  1  0  0  0  0
 30 32  2  0  0  0  0
 31 33  1  0  0  0  0
 31 35  2  0  0  0  0
 32 34  1  0  0  0  0
 32 37  1  0  0  0  0
 33 58  1  0  0  0  0
 34 59  1  0  0  0  0
 34 60  1  0  0  0  0
 34 61  1  0  0  0  0
 35 36  1  0  0  0  0
 35 62  1  0  0  0  0
 36 37  2  0  0  0  0
 36 63  1  0  0  0  0
 37 64  1  0  0  0  0
M  END
> <rseq>
1

> <mseq>
500

> <S>
-7.86201

> <rmsd_refine>
1.783139

> <E_conf>
6.246757

> <E_score1>
-10.58124

> <E_refine>
-43.63193

> <E_score2>
-7.86201

>  <$File>
outputs/pdb_4j58_cleaned.pdb_2024_06_17__22_47_40_V2_BS398_MIN1_/SDF/sdf_db.sdf

> <Rec_index>
1

>  <PLIF_raw>
[[33,14],[2222,954],[148,62],[3,2],[2.2,2.3]]

> <FP:PLIF>
20 23 39 40

>  <PLIF_ligidx>
[14,14,33,33]

$$$$
500
  MOE2022           3D

 63 66  0  0  1  0  0  0  0  0999 V2000
    2.2930   16.3490   20.6870 C   0  0  0  0  0  0  0  0  0  0  0  0
    0.9870   15.9210   20.8740 C   0  0  0  0  0  0  0  0  0  0  0  0
    2.6860   16.8620   19.4580 C   0  0  0  0  0  0  0  0  0  0  0  0
    0.0770   15.9820   19.8240 C   0  0  0  0  0  0  0  0  0  0  0  0
    0.4740   16.4880   18.5900 C   0  0  0  0  0  0  0  0  0  0  0  0
    1.7790   16.9400   18.3980 C   0  0  0  0  0  0  0  0  0  0  0  0
    2.1870   17.4970   17.0400 C   0  0  1  0  0  0  0  0  0  0  0  0
    3.2000   18.5480   17.1540 N   0  0  0  0  0  0  0  0  0  0  0  0
    2.6790   16.4140   16.0980 C   0  0  0  0  0  0  0  0  0  0  0  0
    2.9390   19.8260   17.5740 C   0  0  0  0  0  0  0  0  0  0  0  0
    2.0810   16.3570   14.9020 N   0  0  0  0  0  0  0  0  0  0  0  0
    1.7880   20.2460   17.4720 O   0  0  0  0  0  0  0  0  0  0  0  0
    4.0600   20.5970   18.1160 C   0  0  0  0  0  0  0  0  0  0  0  0
    3.6530   15.7140   16.3720 O   0  0  0  0  0  0  0  0  0  0  0  0
    2.5660   15.5680   13.7800 C   0  0  1  0  0  0  0  0  0  0  0  0
    1.6240   14.4350   13.4040 C   0  0  0  0  0  0  0  0  0  0  0  0
    2.6980   16.4000   12.5080 C   0  0  0  0  0  0  0  0  0  0  0  0
    5.1780   19.9270   18.6490 C   0  0  0  0  0  0  0  0  0  0  0  0
    1.4750   14.5320   11.8820 C   0  0  0  0  0  0  0  0  0  0  0  0
    4.0680   22.0100   18.1360 C   0  0  0  0  0  0  0  0  0  0  0  0
    2.4550   15.5100   11.3740 N   0  0  0  0  0  0  0  0  0  0  0  0
    6.2570   20.6430   19.1450 C   0  0  0  0  0  0  0  0  0  0  0  0
    3.0030   22.7250   17.6700 O   0  0  0  0  0  0  0  0  0  0  0  0
    3.6310   15.1090   10.7020 C   0  0  0  0  0  0  0  0  0  0  0  0
    6.2480   22.0390   19.1280 C   0  0  0  0  0  0  0  0  0  0  0  0
    7.3160   22.7240   19.6110 O   0  0  0  0  0  0  0  0  0  0  0  0
    7.3370   19.9640   19.6540 O   0  0  0  0  0  0  0  0  0  0  0  0
    5.1530   22.7330   18.6280 C   0  0  0  0  0  0  0  0  0  0  0  0
    4.3440   16.0600    9.9370 C   0  0  0  0  0  0  0  0  0  0  0  0
    4.1070   13.7910   10.8070 C   0  0  0  0  0  0  0  0  0  0  0  0
    3.8870   17.4320    9.7710 C   0  0  0  0  0  0  0  0  0  0  0  0
    5.5260   15.6600    9.3100 C   0  0  0  0  0  0  0  0  0  0  0  0
    4.3820   18.3330   10.5020 O   0  0  0  0  0  0  0  0  0  0  0  0
    3.0300   17.7030    8.8900 O   0  5  0  0  0  0  0  0  0  0  0  0
    5.2840   13.4190   10.1730 C   0  0  0  0  0  0  0  0  0  0  0  0
    5.8050   12.0030   10.2960 C   0  0  0  0  0  0  0  0  0  0  0  0
    5.9880   14.3590    9.4260 C   0  0  0  0  0  0  0  0  0  0  0  0
    2.9890   16.2870   21.4820 H   0  0  0  0  0  0  0  0  0  0  0  0
    0.6910   15.5540   21.8170 H   0  0  0  0  0  0  0  0  0  0  0  0
    3.6810   17.1940   19.3390 H   0  0  0  0  0  0  0  0  0  0  0  0
   -0.9190   15.6490   19.9640 H   0  0  0  0  0  0  0  0  0  0  0  0
   -0.2260   16.5310   17.7940 H   0  0  0  0  0  0  0  0  0  0  0  0
    1.3050   17.9420   16.5980 H   0  0  0  0  0  0  0  0  0  0  0  0
    4.1740   18.2180   17.2100 H   0  0  0  0  0  0  0  0  0  0  0  0
    1.2980   16.9680   14.7200 H   0  0  0  0  0  0  0  0  0  0  0  0
    3.5490   15.1430   13.9870 H   0  0  0  0  0  0  0  0  0  0  0  0
    2.0720   13.4800   13.6780 H   0  0  0  0  0  0  0  0  0  0  0  0
    0.6510   14.5460   13.8820 H   0  0  0  0  0  0  0  0  0  0  0  0
    1.9590   17.1900   12.4960 H   0  0  0  0  0  0  0  0  0  0  0  0
    3.6650   16.8800   12.4720 H   0  0  0  0  0  0  0  0  0  0  0  0
    5.2030   18.8720   18.6880 H   0  0  0  0  0  0  0  0  0  0  0  0
    1.5410   13.5680   11.3980 H   0  0  0  0  0  0  0  0  0  0  0  0
    0.4840   14.8980   11.6500 H   0  0  0  0  0  0  0  0  0  0  0  0
    2.2700   22.1190   17.4300 H   0  0  0  0  0  0  0  0  0  0  0  0
    8.0160   22.0930   19.8780 H   0  0  0  0  0  0  0  0  0  0  0  0
    7.2270   19.0000   19.5440 H   0  0  0  0  0  0  0  0  0  0  0  0
    5.1440   23.7920   18.6200 H   0  0  0  0  0  0  0  0  0  0  0  0
    3.5830   13.0740   11.3790 H   0  0  0  0  0  0  0  0  0  0  0  0
    6.0720   16.3580    8.7290 H   0  0  0  0  0  0  0  0  0  0  0  0
    6.6720   11.8420    9.6540 H   0  0  0  0  0  0  0  0  0  0  0  0
    6.1060   11.7970   11.3220 H   0  0  0  0  0  0  0  0  0  0  0  0
    5.0340   11.2890   10.0080 H   0  0  0  0  0  0  0  0  0  0  0  0
    6.8760   14.0780    8.9380 H   0  0  0  0  0  0  0  0  0  0  0  0
  1  2  2  0  0  0  0
  1  3  1  0  0  0  0
  1 38  1  0  0  0  0
  2  4  1  0  0  0  0
  2 39  1  0  0  0  0
  3  6  2  0  0  0  0
  3 40  1  0  0  0  0
  4  5  2  0  0  0  0
  4 41  1  0  0  0  0
  5  6  1  0  0  0  0
  5 42  1  0  0  0  0
  6  7  1  0  0  0  0
  7  8  1  0  0  0  0
  7  9  1  0  0  0  0
  7 43  1  0  0  0  0
  8 10  1  0  0  0  0
  8 44  1  0  0  0  0
  9 11  1  0  0  0  0
  9 14  2  0  0  0  0
 10 12  2  0  0  0  0
 10 13  1  0  0  0  0
 11 15  1  0  0  0  0
 11 45  1  0  0  0  0
 13 18  1  0  0  0  0
 13 20  2  0  0  0  0
 15 16  1  0  0  0  0
 15 17  1  0  0  0  0
 15 46  1  0  0  0  0
 16 19  1  0  0  0  0
 16 47  1  0  0  0  0
 16 48  1  0  0  0  0
 17 21  1  0  0  0  0
 17 49  1  0  0  0  0
 17 50  1  0  0  0  0
 18 22  2  0  0  0  0
 18 51  1  0  0  0  0
 19 21  1  0  0  0  0
 19 52  1  0  0  0  0
 19 53  1  0  0  0  0
 20 23  1  0  0  0  0
 20 28  1  0  0  0  0
 21 24  1  0  0  0  0
 22 25  1  0  0  0  0
 22 27  1  0  0  0  0
 23 54  1  0  0  0  0
 24 29  2  0  0  0  0
 24 30  1  0  0  0  0
 25 26  1  0  0  0  0
 25 28  2  0  0  0  0
 26 55  1  0  0  0  0
 27 56  1  0  0  0  0
 28 57  1  0  0  0  0
 29 31  1  0  0  0  0
 29 32  1  0  0  0  0
 30 35  2  0  0  0  0
 30 58  1  0  0  0  0
 31 33  2  0  0  0  0
 31 34  1  0  0  0  0
 32 37  2  0  0  0  0
 32 59  1  0  0  0  0
 35 36  1  0  0  0  0
 35 37  1  0  0  0  0
 36 60  1  0  0  0  0
 36 61  1  0  0  0  0
 36 62  1  0  0  0  0
 37 63  1  0  0  0  0
M  CHG  1  34  -1
M  END
> <rseq>
1

> <mseq>
501

> <S>
-8.032763

> <rmsd_refine>
1.372859

> <E_conf>
-76.54855

> <E_score1>
-11.53549

> <E_refine>
-43.62518

> <E_score2>
-8.032763

>  <$File>
outputs/pdb_4j58_cleaned.pdb_2024_06_17__22_47_40_V2_BS398_MIN1_/SDF/sdf_db.sdf

> <Rec_index>
1

>  <PLIF_raw>
[[14,33,33,24,29,32,37,35,30,1,3,6,5,4,2],[954,823,829,823,823,823,823,823,823,1519,1519,1519,1519,1519,1519],[62,54,54,54,54,54,54,54,54,102,102,102,102,102,102],[2,7,7,10,10,10,10,10,10,10,10,10,10,10,10],[1.5,2.986823606,4.385542905,0.9,0.9,0.9,0.9,0.9,0.9,0.5,0.5,0.5,0.5,0.5,0.5]]

> <FP:PLIF>
1 16 2 20 23 22

>  <PLIF_ligidx>
[[33,33],33,[24,29,32,37,35,30],14,14,[1,3,6,5,4,2]]

$$$$
501
  MOE2022           3D

 67 70  0  0  1  0  0  0  0  0999 V2000
    3.7150   17.9430   19.4410 O   0  0  0  0  0  0  0  0  0  0  0  0
    2.8130   17.6240   18.6590 C   0  0  0  0  0  0  0  0  0  0  0  0
    1.6560   16.8560   19.0360 C   0  0  0  0  0  0  0  0  0  0  0  0
    2.9240   17.9970   17.3130 N   0  0  0  0  0  0  0  0  0  0  0  0
    0.7320   16.5360   18.0870 C   0  0  0  0  0  0  0  0  0  0  0  0
    1.9840   17.5280   16.3770 C   0  0  0  0  0  0  0  0  0  0  0  0
    0.9290   16.8730   16.7690 N   0  0  0  0  0  0  0  0  0  0  0  0
    2.2780   17.6830   14.9630 C   0  0  0  0  0  0  0  0  0  0  0  0
    4.0880   18.8230   16.8630 C   0  0  0  0  0  0  0  0  0  0  0  0
    1.5030   16.4000   20.4790 C   0  0  0  0  0  0  0  0  0  0  0  0
   -0.5250   15.7430   18.3880 C   0  0  0  0  0  0  0  0  0  0  0  0
    3.8500   20.3450   16.7610 C   0  0  1  0  0  0  0  0  0  0  0  0
    4.1320   21.0900   18.0680 C   0  0  0  0  0  0  0  0  0  0  0  0
    2.0200   18.8690   14.2580 C   0  0  0  0  0  0  0  0  0  0  0  0
    4.8660   20.9880   15.8270 C   0  0  0  0  0  0  0  0  0  0  0  0
    2.3960   18.9950   12.9240 C   0  0  0  0  0  0  0  0  0  0  0  0
    3.0160   17.9230   12.2770 C   0  0  0  0  0  0  0  0  0  0  0  0
    4.7690   20.9360   14.6010 O   0  0  0  0  0  0  0  0  0  0  0  0
    2.8660   16.6120   14.2690 C   0  0  0  0  0  0  0  0  0  0  0  0
    5.5680   21.6500   17.9640 C   0  0  1  0  0  0  0  0  0  0  0  0
    5.8440   21.5910   16.5130 N   0  0  0  0  0  0  0  0  0  0  0  0
    7.0110   22.2180   15.8870 C   0  0  0  0  0  0  0  0  0  0  0  0
    5.6010   23.1220   18.4290 C   0  0  0  0  0  0  0  0  0  0  0  0
    3.4300   18.0720   10.9820 O   0  0  0  0  0  0  0  0  0  0  0  0
    3.0880   15.4280   14.9010 O   0  0  0  0  0  0  0  0  0  0  0  0
    2.7230   17.4610    9.8620 C   0  0  1  0  0  0  0  0  0  0  0  0
    6.5260   20.7900   18.8160 C   0  0  0  0  0  0  0  0  0  0  0  0
    3.0090   18.2510    8.6010 C   0  0  0  0  0  0  0  0  0  0  0  0
    3.2460   16.7220   12.9400 C   0  0  0  0  0  0  0  0  0  0  0  0
    3.1380   15.9910    9.6530 C   0  0  0  0  0  0  0  0  0  0  0  0
    6.4200   20.8670   20.0640 O   0  0  0  0  0  0  0  0  0  0  0  0
    7.3450   20.0370   18.2430 O   0  5  0  0  0  0  0  0  0  0  0  0
    2.2850   19.1640    8.2810 O   0  0  0  0  0  0  0  0  0  0  0  0
    4.6250   15.8840    9.2540 C   0  0  2  0  0  0  0  0  0  0  0  0
    4.9250   16.8050    8.0840 C   0  0  0  0  0  0  0  0  0  0  0  0
    4.1640   17.8860    7.8010 C   0  0  0  0  0  0  0  0  0  0  0  0
    5.0350   14.4330    8.9620 C   0  0  0  0  0  0  0  0  0  0  0  0
    4.9420   18.6730   17.5050 H   0  0  0  0  0  0  0  0  0  0  0  0
    4.4450   18.4630   15.9090 H   0  0  0  0  0  0  0  0  0  0  0  0
    0.6920   16.9200   20.9680 H   0  0  0  0  0  0  0  0  0  0  0  0
    1.2940   15.3400   20.5290 H   0  0  0  0  0  0  0  0  0  0  0  0
    2.3960   16.5620   21.0650 H   0  0  0  0  0  0  0  0  0  0  0  0
   -0.9890   16.0510   19.3130 H   0  0  0  0  0  0  0  0  0  0  0  0
   -1.2660   15.8610   17.6080 H   0  0  0  0  0  0  0  0  0  0  0  0
   -0.3070   14.6870   18.4660 H   0  0  0  0  0  0  0  0  0  0  0  0
    2.8360   20.5450   16.4190 H   0  0  0  0  0  0  0  0  0  0  0  0
    3.4130   21.9050   18.1630 H   0  0  0  0  0  0  0  0  0  0  0  0
    4.0370   20.4330   18.9250 H   0  0  0  0  0  0  0  0  0  0  0  0
    1.5430   19.6790   14.7470 H   0  0  0  0  0  0  0  0  0  0  0  0
    2.2190   19.9000   12.4010 H   0  0  0  0  0  0  0  0  0  0  0  0
    6.8940   23.2910   15.8260 H   0  0  0  0  0  0  0  0  0  0  0  0
    7.9120   22.0190   16.4520 H   0  0  0  0  0  0  0  0  0  0  0  0
    7.1770   21.8520   14.8830 H   0  0  0  0  0  0  0  0  0  0  0  0
    5.1960   23.2120   19.4330 H   0  0  0  0  0  0  0  0  0  0  0  0
    6.6240   23.4990   18.4370 H   0  0  0  0  0  0  0  0  0  0  0  0
    5.0060   23.7530   17.7680 H   0  0  0  0  0  0  0  0  0  0  0  0
    2.6590   15.4190   15.7820 H   0  0  0  0  0  0  0  0  0  0  0  0
    1.6640   17.5140   10.0800 H   0  0  0  0  0  0  0  0  0  0  0  0
    3.7170   15.9100   12.4550 H   0  0  0  0  0  0  0  0  0  0  0  0
    2.9290   15.3980   10.5400 H   0  0  0  0  0  0  0  0  0  0  0  0
    2.5280   15.5850    8.8440 H   0  0  0  0  0  0  0  0  0  0  0  0
    5.2210   16.2200   10.0920 H   0  0  0  0  0  0  0  0  0  0  0  0
    5.7740   16.5640    7.4980 H   0  0  0  0  0  0  0  0  0  0  0  0
    4.3840   18.5080    6.9720 H   0  0  0  0  0  0  0  0  0  0  0  0
    6.1010   14.3750    8.7420 H   0  0  0  0  0  0  0  0  0  0  0  0
    4.8320   13.7960    9.8230 H   0  0  0  0  0  0  0  0  0  0  0  0
    4.4850   14.0410    8.1050 H   0  0  0  0  0  0  0  0  0  0  0  0
  1  2  2  0  0  0  0
  2  3  1  0  0  0  0
  2  4  1  0  0  0  0
  3  5  2  0  0  0  0
  3 10  1  0  0  0  0
  4  6  1  0  0  0  0
  4  9  1  0  0  0  0
  5  7  1  0  0  0  0
  5 11  1  0  0  0  0
  6  7  2  0  0  0  0
  6  8  1  0  0  0  0
  8 14  1  0  0  0  0
  8 19  2  0  0  0  0
  9 12  1  0  0  0  0
  9 38  1  0  0  0  0
  9 39  1  0  0  0  0
 10 40  1  0  0  0  0
 10 41  1  0  0  0  0
 10 42  1  0  0  0  0
 11 43  1  0  0  0  0
 11 44  1  0  0  0  0
 11 45  1  0  0  0  0
 12 13  1  0  0  0  0
 12 15  1  0  0  0  0
 12 46  1  0  0  0  0
 13 20  1  0  0  0  0
 13 47  1  0  0  0  0
 13 48  1  0  0  0  0
 14 16  2  0  0  0  0
 14 49  1  0  0  0  0
 15 18  2  0  0  0  0
 15 21  1  0  0  0  0
 16 17  1  0  0  0  0
 16 50  1  0  0  0  0
 17 24  1  0  0  0  0
 17 29  2  0  0  0  0
 19 25  1  0  0  0  0
 19 29  1  0  0  0  0
 20 21  1  0  0  0  0
 20 23  1  0  0  0  0
 20 27  1  0  0  0  0
 21 22  1  0  0  0  0
 22 51  1  0  0  0  0
 22 52  1  0  0  0  0
 22 53  1  0  0  0  0
 23 54  1  0  0  0  0
 23 55  1  0  0  0  0
 23 56  1  0  0  0  0
 24 26  1  0  0  0  0
 25 57  1  0  0  0  0
 26 28  1  0  0  0  0
 26 30  1  0  0  0  0
 26 58  1  0  0  0  0
 27 31  2  0  0  0  0
 27 32  1  0  0  0  0
 28 33  2  0  0  0  0
 28 36  1  0  0  0  0
 29 59  1  0  0  0  0
 30 34  1  0  0  0  0
 30 60  1  0  0  0  0
 30 61  1  0  0  0  0
 34 35  1  0  0  0  0
 34 37  1  0  0  0  0
 34 62  1  0  0  0  0
 35 36  2  0  0  0  0
 35 63  1  0  0  0  0
 36 64  1  0  0  0  0
 37 65  1  0  0  0  0
 37 66  1  0  0  0  0
 37 67  1  0  0  0  0
M  CHG  1  32  -1
M  END
> <rseq>
1

> <mseq>
502

> <S>
-6.884302

> <rmsd_refine>
1.360346

> <E_conf>
-41.5632

> <E_score1>
-13.69353

> <E_refine>
-37.40465

> <E_score2>
-6.884302

>  <$File>
outputs/pdb_4j58_cleaned.pdb_2024_06_17__22_47_40_V2_BS398_MIN1_/SDF/sdf_db.sdf

> <Rec_index>
1

>  <PLIF_raw>
[[31,31],[1866,1872],[125,125],[7,7],[1.110314708,1.064173903]]

> <FP:PLIF>
13

>  <PLIF_ligidx>
[[31,31]]

$$$$
502
  MOE2022           3D

 67 70  0  0  1  0  0  0  0  0999 V2000
    2.5760   16.8060   18.9910 O   0  0  0  0  0  0  0  0  0  0  0  0
    1.6620   17.0200   18.1960 C   0  0  0  0  0  0  0  0  0  0  0  0
    1.8830   17.8810   17.1490 N   0  0  0  0  0  0  0  0  0  0  0  0
    0.3470   16.3780   18.2890 C   0  0  0  0  0  0  0  0  0  0  0  0
   -0.7640   16.8790   17.5900 C   0  0  0  0  0  0  0  0  0  0  0  0
   -1.9930   16.2340   17.6560 C   0  0  0  0  0  0  0  0  0  0  0  0
    0.1810   15.2240   19.0680 C   0  0  0  0  0  0  0  0  0  0  0  0
    3.2040   18.3120   16.7040 C   0  0  1  0  0  0  0  0  0  0  0  0
   -1.0480   14.5750   19.1220 C   0  0  0  0  0  0  0  0  0  0  0  0
   -2.1350   15.0790   18.4170 C   0  0  0  0  0  0  0  0  0  0  0  0
    3.2350   18.4950   15.1860 C   0  0  0  0  0  0  0  0  0  0  0  0
    2.8700   17.4440   14.3300 C   0  0  0  0  0  0  0  0  0  0  0  0
    2.5550   16.2080   14.8280 O   0  0  0  0  0  0  0  0  0  0  0  0
    2.8310   17.6030   12.9500 C   0  0  0  0  0  0  0  0  0  0  0  0
    3.2030   18.8270   12.4070 C   0  0  0  0  0  0  0  0  0  0  0  0
    3.6670   19.5470   17.5030 C   0  0  0  0  0  0  0  0  0  0  0  0
    3.1650   19.0300   11.0440 O   0  0  0  0  0  0  0  0  0  0  0  0
    3.6090   19.8780   13.2270 C   0  0  0  0  0  0  0  0  0  0  0  0
    4.7870   20.3220   16.7930 C   0  0  1  0  0  0  0  0  0  0  0  0
    3.6480   19.7080   14.6120 C   0  0  0  0  0  0  0  0  0  0  0  0
    3.9880   18.2670   10.1070 C   0  0  0  0  0  0  0  0  0  0  0  0
    4.1630   20.8380   15.4840 C   0  0  0  0  0  0  0  0  0  0  0  0
    3.5660   16.8210    9.9150 C   0  0  0  0  0  0  0  0  0  0  0  0
    5.3860   21.4700   17.6370 C   0  0  0  0  0  0  0  0  0  0  0  0
    2.3950   16.5190    9.6740 O   0  0  0  0  0  0  0  0  0  0  0  0
    4.5380   15.8430    9.9770 N   0  0  0  0  0  0  0  0  0  0  0  0
    5.8690   16.1170   10.1250 O   0  5  0  0  0  0  0  0  0  0  0  0
    6.6780   21.0820   18.3930 C   0  0  0  0  0  0  0  0  0  0  0  0
    7.3200   22.3350   19.0020 C   0  0  0  0  0  0  0  0  0  0  0  0
    6.4500   20.0440   19.5000 C   0  0  0  0  0  0  0  0  0  0  0  0
    4.1290   14.4910    9.8280 C   0  0  0  0  0  0  0  0  0  0  0  0
    4.3710   13.8030    8.6360 C   0  0  0  0  0  0  0  0  0  0  0  0
    3.4690   13.8160   10.8600 C   0  0  0  0  0  0  0  0  0  0  0  0
    5.0090   14.4140    7.6110 F   0  0  0  0  0  0  0  0  0  0  0  0
    3.9570   12.4850    8.4630 C   0  0  0  0  0  0  0  0  0  0  0  0
    3.2820   11.8360    9.5010 C   0  0  0  0  0  0  0  0  0  0  0  0
    3.2380   14.4270   12.0430 F   0  0  0  0  0  0  0  0  0  0  0  0
    3.0360   12.5030   10.7050 C   0  0  0  0  0  0  0  0  0  0  0  0
    1.1190   18.0240   16.4720 H   0  0  0  0  0  0  0  0  0  0  0  0
   -0.6800   17.7580   17.0040 H   0  0  0  0  0  0  0  0  0  0  0  0
   -2.8230   16.6210   17.1230 H   0  0  0  0  0  0  0  0  0  0  0  0
    1.0040   14.8310   19.6080 H   0  0  0  0  0  0  0  0  0  0  0  0
    3.9010   17.5150   16.9070 H   0  0  0  0  0  0  0  0  0  0  0  0
   -1.1610   13.6910   19.6920 H   0  0  0  0  0  0  0  0  0  0  0  0
   -3.0710   14.5830   18.4600 H   0  0  0  0  0  0  0  0  0  0  0  0
    2.3590   15.5870   14.0980 H   0  0  0  0  0  0  0  0  0  0  0  0
    2.5130   16.8110   12.3280 H   0  0  0  0  0  0  0  0  0  0  0  0
    2.8150   20.2140   17.6500 H   0  0  0  0  0  0  0  0  0  0  0  0
    3.9920   19.2120   18.4850 H   0  0  0  0  0  0  0  0  0  0  0  0
    3.8980   20.8000   12.7920 H   0  0  0  0  0  0  0  0  0  0  0  0
    5.5860   19.6280   16.5370 H   0  0  0  0  0  0  0  0  0  0  0  0
    3.9610   18.7690    9.1500 H   0  0  0  0  0  0  0  0  0  0  0  0
    5.0110   18.3320   10.4340 H   0  0  0  0  0  0  0  0  0  0  0  0
    3.3390   21.5190   15.7060 H   0  0  0  0  0  0  0  0  0  0  0  0
    4.9210   21.3900   14.9260 H   0  0  0  0  0  0  0  0  0  0  0  0
    5.6390   22.2920   16.9660 H   0  0  0  0  0  0  0  0  0  0  0  0
    4.6390   21.8420   18.3400 H   0  0  0  0  0  0  0  0  0  0  0  0
    7.3900   20.6640   17.6780 H   0  0  0  0  0  0  0  0  0  0  0  0
    8.2390   22.0620   19.5210 H   0  0  0  0  0  0  0  0  0  0  0  0
    7.5660   23.0480   18.2140 H   0  0  0  0  0  0  0  0  0  0  0  0
    6.6350   22.8050   19.7060 H   0  0  0  0  0  0  0  0  0  0  0  0
    7.3740   19.8850   20.0570 H   0  0  0  0  0  0  0  0  0  0  0  0
    5.6700   20.3820   20.1830 H   0  0  0  0  0  0  0  0  0  0  0  0
    6.1580   19.0930   19.0590 H   0  0  0  0  0  0  0  0  0  0  0  0
    4.1470   11.9810    7.5510 H   0  0  0  0  0  0  0  0  0  0  0  0
    2.9580   10.8360    9.3750 H   0  0  0  0  0  0  0  0  0  0  0  0
    2.5260   12.0140   11.4940 H   0  0  0  0  0  0  0  0  0  0  0  0
  1  2  2  0  0  0  0
  2  3  1  0  0  0  0
  2  4  1  0  0  0  0
  3  8  1  0  0  0  0
  3 39  1  0  0  0  0
  4  5  2  0  0  0  0
  4  7  1  0  0  0  0
  5  6  1  0  0  0  0
  5 40  1  0  0  0  0
  6 10  2  0  0  0  0
  6 41  1  0  0  0  0
  7  9  2  0  0  0  0
  7 42  1  0  0  0  0
  8 11  1  0  0  0  0
  8 16  1  0  0  0  0
  8 43  1  0  0  0  0
  9 10  1  0  0  0  0
  9 44  1  0  0  0  0
 10 45  1  0  0  0  0
 11 12  1  0  0  0  0
 11 20  2  0  0  0  0
 12 13  1  0  0  0  0
 12 14  2  0  0  0  0
 13 46  1  0  0  0  0
 14 15  1  0  0  0  0
 14 47  1  0  0  0  0
 15 17  1  0  0  0  0
 15 18  2  0  0  0  0
 16 19  1  0  0  0  0
 16 48  1  0  0  0  0
 16 49  1  0  0  0  0
 17 21  1  0  0  0  0
 18 20  1  0  0  0  0
 18 50  1  0  0  0  0
 19 22  1  0  0  0  0
 19 24  1  0  0  0  0
 19 51  1  0  0  0  0
 20 22  1  0  0  0  0
 21 23  1  0  0  0  0
 21 52  1  0  0  0  0
 21 53  1  0  0  0  0
 22 54  1  0  0  0  0
 22 55  1  0  0  0  0
 23 25  2  0  0  0  0
 23 26  1  0  0  0  0
 24 28  1  0  0  0  0
 24 56  1  0  0  0  0
 24 57  1  0  0  0  0
 26 27  1  0  0  0  0
 26 31  1  0  0  0  0
 28 29  1  0  0  0  0
 28 30  1  0  0  0  0
 28 58  1  0  0  0  0
 29 59  1  0  0  0  0
 29 60  1  0  0  0  0
 29 61  1  0  0  0  0
 30 62  1  0  0  0  0
 30 63  1  0  0  0  0
 30 64  1  0  0  0  0
 31 32  1  0  0  0  0
 31 33  2  0  0  0  0
 32 34  1  0  0  0  0
 32 35  2  0  0  0  0
 33 37  1  0  0  0  0
 33 38  1  0  0  0  0
 35 36  1  0  0  0  0
 35 65  1  0  0  0  0
 36 38  2  0  0  0  0
 36 66  1  0  0  0  0
 38 67  1  0  0  0  0
M  CHG  1  27  -1
M  END
> <rseq>
1

> <mseq>
503

> <S>
-6.934035

> <rmsd_refine>
1.680043

> <E_conf>
-38.74153

> <E_score1>
-15.19319

> <E_refine>
-39.94506

> <E_score2>
-6.934035

>  <$File>
outputs/pdb_4j58_cleaned.pdb_2024_06_17__22_47_40_V2_BS398_MIN1_/SDF/sdf_db.sdf

> <Rec_index>
1

>  <PLIF_raw>
[[27,27],[823,829],[54,54],[7,7],[5.261752564,0.7857778623]]

> <FP:PLIF>
1 16

>  <PLIF_ligidx>
[[27,27],27]

$$$$
503
  MOE2022           3D

 64 67  0  0  1  0  0  0  0  0999 V2000
    2.6000   16.2580   20.8650 C   0  0  0  0  0  0  0  0  0  0  0  0
    1.3420   15.7350   21.1160 C   0  0  0  0  0  0  0  0  0  0  0  0
    2.8420   16.9580   19.6910 C   0  0  0  0  0  0  0  0  0  0  0  0
    0.3230   15.8980   20.1840 C   0  0  0  0  0  0  0  0  0  0  0  0
    0.5680   16.5900   19.0020 C   0  0  0  0  0  0  0  0  0  0  0  0
    1.8270   17.1330   18.7480 C   0  0  0  0  0  0  0  0  0  0  0  0
    2.0710   17.8850   17.4460 C   0  0  1  0  0  0  0  0  0  0  0  0
    3.1820   18.8310   17.5620 N   0  0  0  0  0  0  0  0  0  0  0  0
    2.3330   16.9400   16.2850 C   0  0  0  0  0  0  0  0  0  0  0  0
    3.0950   20.1970   17.6190 C   0  0  0  0  0  0  0  0  0  0  0  0
    1.5500   17.0870   15.2050 N   0  0  0  0  0  0  0  0  0  0  0  0
    1.9880   20.7250   17.5460 O   0  0  0  0  0  0  0  0  0  0  0  0
    4.3540   20.9270   17.7630 C   0  0  0  0  0  0  0  0  0  0  0  0
    3.2870   16.1580   16.2990 O   0  0  0  0  0  0  0  0  0  0  0  0
    1.8060   16.4200   13.9350 C   0  0  1  0  0  0  0  0  0  0  0  0
    0.6260   16.4820   12.9850 C   0  0  0  0  0  0  0  0  0  0  0  0
    2.9350   17.0690   13.1330 C   0  0  0  0  0  0  0  0  0  0  0  0
    5.5400   20.3770   17.2440 C   0  0  0  0  0  0  0  0  0  0  0  0
    1.2680   16.4110   11.5970 C   0  0  0  0  0  0  0  0  0  0  0  0
    4.4340   22.1770   18.4160 C   0  0  0  0  0  0  0  0  0  0  0  0
    2.6450   16.9260   11.7000 N   0  0  0  0  0  0  0  0  0  0  0  0
    6.7440   21.0550   17.3730 C   0  0  0  0  0  0  0  0  0  0  0  0
    3.3270   22.7430   18.9840 O   0  0  0  0  0  0  0  0  0  0  0  0
    3.6420   16.2950   10.9160 C   0  0  0  0  0  0  0  0  0  0  0  0
    6.7900   22.3060   17.9940 C   0  0  0  0  0  0  0  0  0  0  0  0
    7.9720   22.9740   18.0830 O   0  0  0  0  0  0  0  0  0  0  0  0
    7.8940   20.4810   16.8860 O   0  0  0  0  0  0  0  0  0  0  0  0
    5.6370   22.8740   18.5220 C   0  0  0  0  0  0  0  0  0  0  0  0
    4.2890   17.0430    9.9090 C   0  0  0  0  0  0  0  0  0  0  0  0
    4.0350   18.4660    9.6920 C   0  0  0  0  0  0  0  0  0  0  0  0
    4.0010   14.9440   11.1160 C   0  0  0  0  0  0  0  0  0  0  0  0
    3.4070   14.2140   12.1200 O   0  0  0  0  0  0  0  0  0  0  0  0
    5.2250   16.3910    9.0940 C   0  0  0  0  0  0  0  0  0  0  0  0
    4.9590   14.3230   10.3130 C   0  0  0  0  0  0  0  0  0  0  0  0
    3.8410   18.8810    8.5160 O   0  5  0  0  0  0  0  0  0  0  0  0
    5.3650   12.8740   10.5080 C   0  0  0  0  0  0  0  0  0  0  0  0
    5.5630   15.0610    9.2970 C   0  0  0  0  0  0  0  0  0  0  0  0
    4.0800   19.2750   10.6600 O   0  0  0  0  0  0  0  0  0  0  0  0
    3.3780   16.1200   21.5690 H   0  0  0  0  0  0  0  0  0  0  0  0
    1.1720   15.2140   22.0180 H   0  0  0  0  0  0  0  0  0  0  0  0
    3.8070   17.3560   19.5270 H   0  0  0  0  0  0  0  0  0  0  0  0
   -0.6400   15.4980   20.3720 H   0  0  0  0  0  0  0  0  0  0  0  0
   -0.2120   16.7060   18.2930 H   0  0  0  0  0  0  0  0  0  0  0  0
    1.1690   18.4420   17.2270 H   0  0  0  0  0  0  0  0  0  0  0  0
    4.1160   18.4060   17.6510 H   0  0  0  0  0  0  0  0  0  0  0  0
    0.8000   17.7620   15.2260 H   0  0  0  0  0  0  0  0  0  0  0  0
    2.0670   15.3730   14.1010 H   0  0  0  0  0  0  0  0  0  0  0  0
   -0.0730   15.6630   13.1550 H   0  0  0  0  0  0  0  0  0  0  0  0
    0.1200   17.4440   13.0860 H   0  0  0  0  0  0  0  0  0  0  0  0
    3.0030   18.1230   13.3670 H   0  0  0  0  0  0  0  0  0  0  0  0
    3.8790   16.6300   13.4050 H   0  0  0  0  0  0  0  0  0  0  0  0
    5.5210   19.4460   16.7420 H   0  0  0  0  0  0  0  0  0  0  0  0
    1.2710   15.3880   11.2460 H   0  0  0  0  0  0  0  0  0  0  0  0
    0.7000   16.9820   10.8750 H   0  0  0  0  0  0  0  0  0  0  0  0
    2.5390   22.1810   18.8210 H   0  0  0  0  0  0  0  0  0  0  0  0
    8.6850   22.4380   17.6810 H   0  0  0  0  0  0  0  0  0  0  0  0
    7.7420   19.5440   16.6480 H   0  0  0  0  0  0  0  0  0  0  0  0
    5.6720   23.8200   18.9970 H   0  0  0  0  0  0  0  0  0  0  0  0
    3.8470   13.3460   12.2240 H   0  0  0  0  0  0  0  0  0  0  0  0
    5.6920   16.9250    8.3070 H   0  0  0  0  0  0  0  0  0  0  0  0
    6.0040   12.7730   11.3850 H   0  0  0  0  0  0  0  0  0  0  0  0
    4.4880   12.2390   10.6340 H   0  0  0  0  0  0  0  0  0  0  0  0
    5.9200   12.5020    9.6460 H   0  0  0  0  0  0  0  0  0  0  0  0
    6.2860   14.6080    8.6700 H   0  0  0  0  0  0  0  0  0  0  0  0
  1  2  2  0  0  0  0
  1  3  1  0  0  0  0
  1 39  1  0  0  0  0
  2  4  1  0  0  0  0
  2 40  1  0  0  0  0
  3  6  2  0  0  0  0
  3 41  1  0  0  0  0
  4  5  2  0  0  0  0
  4 42  1  0  0  0  0
  5  6  1  0  0  0  0
  5 43  1  0  0  0  0
  6  7  1  0  0  0  0
  7  8  1  0  0  0  0
  7  9  1  0  0  0  0
  7 44  1  0  0  0  0
  8 10  1  0  0  0  0
  8 45  1  0  0  0  0
  9 11  1  0  0  0  0
  9 14  2  0  0  0  0
 10 12  2  0  0  0  0
 10 13  1  0  0  0  0
 11 15  1  0  0  0  0
 11 46  1  0  0  0  0
 13 18  1  0  0  0  0
 13 20  2  0  0  0  0
 15 16  1  0  0  0  0
 15 17  1  0  0  0  0
 15 47  1  0  0  0  0
 16 19  1  0  0  0  0
 16 48  1  0  0  0  0
 16 49  1  0  0  0  0
 17 21  1  0  0  0  0
 17 50  1  0  0  0  0
 17 51  1  0  0  0  0
 18 22  2  0  0  0  0
 18 52  1  0  0  0  0
 19 21  1  0  0  0  0
 19 53  1  0  0  0  0
 19 54  1  0  0  0  0
 20 23  1  0  0  0  0
 20 28  1  0  0  0  0
 21 24  1  0  0  0  0
 22 25  1  0  0  0  0
 22 27  1  0  0  0  0
 23 55  1  0  0  0  0
 24 29  2  0  0  0  0
 24 31  1  0  0  0  0
 25 26  1  0  0  0  0
 25 28  2  0  0  0  0
 26 56  1  0  0  0  0
 27 57  1  0  0  0  0
 28 58  1  0  0  0  0
 29 30  1  0  0  0  0
 29 33  1  0  0  0  0
 30 35  1  0  0  0  0
 30 38  2  0  0  0  0
 31 32  1  0  0  0  0
 31 34  2  0  0  0  0
 32 59  1  0  0  0  0
 33 37  2  0  0  0  0
 33 60  1  0  0  0  0
 34 36  1  0  0  0  0
 34 37  1  0  0  0  0
 36 61  1  0  0  0  0
 36 62  1  0  0  0  0
 36 63  1  0  0  0  0
 37 64  1  0  0  0  0
M  CHG  1  35  -1
M  END
> <rseq>
1

> <mseq>
504

> <S>
-7.551262

> <rmsd_refine>
1.461267

> <E_conf>
-62.85508

> <E_score1>
-11.49952

> <E_refine>
-42.96395

> <E_score2>
-7.551262

>  <$File>
outputs/pdb_4j58_cleaned.pdb_2024_06_17__22_47_40_V2_BS398_MIN1_/SDF/sdf_db.sdf

> <Rec_index>
1

>  <PLIF_raw>
[[27,32,14,38,38,24,31,34,37,33,29],[953,1056,954,823,829,823,823,823,823,823,823],[62,70,62,54,54,54,54,54,54,54,54],[1,3,2,7,7,10,10,10,10,10,10],[0.8,2,1.8,1.002939579,4.344322492,1.1,1.1,1.1,1.1,1.1,1.1]]

> <FP:PLIF>
1 16 2 5 28 20 23 3 4

>  <PLIF_ligidx>
[[38,38],38,[24,31,34,37,33,29],[24,31,34,37,33,29],27,14,14,32,32]

$$$$
504
  MOE2022           3D

 65 68  0  0  1  0  0  0  0  0999 V2000
    2.4690   16.3250   20.8380 C   0  0  0  0  0  0  0  0  0  0  0  0
    1.1490   15.9370   21.0100 C   0  0  0  0  0  0  0  0  0  0  0  0
    2.8600   16.9590   19.6670 C   0  0  0  0  0  0  0  0  0  0  0  0
    0.2210   16.1620   20.0000 C   0  0  0  0  0  0  0  0  0  0  0  0
    0.6150   16.7880   18.8210 C   0  0  0  0  0  0  0  0  0  0  0  0
    1.9370   17.2000   18.6470 C   0  0  0  0  0  0  0  0  0  0  0  0
    2.3480   17.8520   17.3350 C   0  0  1  0  0  0  0  0  0  0  0  0
    3.4790   18.7750   17.5150 N   0  0  0  0  0  0  0  0  0  0  0  0
    2.5980   16.7820   16.2790 C   0  0  0  0  0  0  0  0  0  0  0  0
    4.0720   19.5120   16.5180 C   0  0  0  0  0  0  0  0  0  0  0  0
    1.7450   16.7550   15.2470 N   0  0  0  0  0  0  0  0  0  0  0  0
    3.5650   19.4730   15.3990 O   0  0  0  0  0  0  0  0  0  0  0  0
    5.2790   20.2810   16.8450 C   0  0  0  0  0  0  0  0  0  0  0  0
    3.5110   15.9620   16.3850 O   0  0  0  0  0  0  0  0  0  0  0  0
    1.6570   15.6480   14.3040 C   0  0  1  0  0  0  0  0  0  0  0  0
    0.2960   15.6670   13.5940 C   0  0  0  0  0  0  0  0  0  0  0  0
    2.6760   15.7910   13.1650 C   0  0  0  0  0  0  0  0  0  0  0  0
    6.0030   19.9990   18.0200 C   0  0  0  0  0  0  0  0  0  0  0  0
    0.5820   16.4360   12.3070 C   0  0  0  0  0  0  0  0  0  0  0  0
    5.7800   21.2950   15.9940 C   0  0  0  0  0  0  0  0  0  0  0  0
    1.9540   16.1400   11.9470 N   0  0  0  0  0  0  0  0  0  0  0  0
    7.1850   20.6740   18.2960 C   0  0  0  0  0  0  0  0  0  0  0  0
    5.1300   21.6390   14.8430 O   0  0  0  0  0  0  0  0  0  0  0  0
    7.8830   20.3590   19.4300 O   0  0  0  0  0  0  0  0  0  0  0  0
    7.6650   21.6570   17.4270 C   0  0  0  0  0  0  0  0  0  0  0  0
    8.8330   22.3030   17.7030 O   0  0  0  0  0  0  0  0  0  0  0  0
    6.9610   21.9800   16.2750 C   0  0  0  0  0  0  0  0  0  0  0  0
    2.3570   15.8240   10.6630 C   0  0  0  0  0  0  0  0  0  0  0  0
    1.6420   16.1610    9.7210 O   0  0  0  0  0  0  0  0  0  0  0  0
    3.5950   15.0790   10.4780 C   0  0  0  0  0  0  0  0  0  0  0  0
    4.7880   15.7430   10.1400 C   0  0  0  0  0  0  0  0  0  0  0  0
    3.6240   13.6790   10.6480 C   0  0  0  0  0  0  0  0  0  0  0  0
    2.3620   12.8990   10.9750 C   0  0  0  0  0  0  0  0  0  0  0  0
    4.8290   12.9920   10.5340 C   0  0  0  0  0  0  0  0  0  0  0  0
    5.9990   13.6880   10.2330 C   0  0  0  0  0  0  0  0  0  0  0  0
    7.1700   13.0040   10.1650 O   0  0  0  0  0  0  0  0  0  0  0  0
    4.7850   17.0920    9.9320 O   0  0  0  0  0  0  0  0  0  0  0  0
    5.9920   15.0600   10.0160 C   0  0  0  0  0  0  0  0  0  0  0  0
    3.1780   16.1360   21.6010 H   0  0  0  0  0  0  0  0  0  0  0  0
    0.8590   15.4720   21.9100 H   0  0  0  0  0  0  0  0  0  0  0  0
    3.8680   17.2530   19.5600 H   0  0  0  0  0  0  0  0  0  0  0  0
   -0.7860   15.8600   20.1270 H   0  0  0  0  0  0  0  0  0  0  0  0
   -0.0970   16.9500   18.0530 H   0  0  0  0  0  0  0  0  0  0  0  0
    1.5120   18.4560   17.0070 H   0  0  0  0  0  0  0  0  0  0  0  0
    3.8330   18.8740   18.4770 H   0  0  0  0  0  0  0  0  0  0  0  0
    1.0440   17.4770   15.1720 H   0  0  0  0  0  0  0  0  0  0  0  0
    1.7940   14.7000   14.8230 H   0  0  0  0  0  0  0  0  0  0  0  0
    0.0150   14.6460   13.3360 H   0  0  0  0  0  0  0  0  0  0  0  0
   -0.4880   16.1380   14.1880 H   0  0  0  0  0  0  0  0  0  0  0  0
    3.4050   16.5660   13.4040 H   0  0  0  0  0  0  0  0  0  0  0  0
    3.1990   14.8430   13.0550 H   0  0  0  0  0  0  0  0  0  0  0  0
    5.6690   19.2560   18.6960 H   0  0  0  0  0  0  0  0  0  0  0  0
   -0.1230   16.1370   11.5300 H   0  0  0  0  0  0  0  0  0  0  0  0
    0.4830   17.5060   12.4950 H   0  0  0  0  0  0  0  0  0  0  0  0
    4.3190   21.0960   14.7370 H   0  0  0  0  0  0  0  0  0  0  0  0
    7.4610   19.6220   19.9110 H   0  0  0  0  0  0  0  0  0  0  0  0
    9.2260   21.9370   18.5220 H   0  0  0  0  0  0  0  0  0  0  0  0
    7.3190   22.7330   15.6200 H   0  0  0  0  0  0  0  0  0  0  0  0
    2.4960   11.8340   10.7860 H   0  0  0  0  0  0  0  0  0  0  0  0
    2.0930   13.0220   12.0240 H   0  0  0  0  0  0  0  0  0  0  0  0
    1.5250   13.2350   10.3610 H   0  0  0  0  0  0  0  0  0  0  0  0
    4.8650   11.9440   10.6780 H   0  0  0  0  0  0  0  0  0  0  0  0
    7.0550   12.0840   10.4760 H   0  0  0  0  0  0  0  0  0  0  0  0
    5.6370   17.4010    9.5640 H   0  0  0  0  0  0  0  0  0  0  0  0
    6.8830   15.5740    9.7730 H   0  0  0  0  0  0  0  0  0  0  0  0
  1  2  2  0  0  0  0
  1  3  1  0  0  0  0
  1 39  1  0  0  0  0
  2  4  1  0  0  0  0
  2 40  1  0  0  0  0
  3  6  2  0  0  0  0
  3 41  1  0  0  0  0
  4  5  2  0  0  0  0
  4 42  1  0  0  0  0
  5  6  1  0  0  0  0
  5 43  1  0  0  0  0
  6  7  1  0  0  0  0
  7  8  1  0  0  0  0
  7  9  1  0  0  0  0
  7 44  1  0  0  0  0
  8 10  1  0  0  0  0
  8 45  1  0  0  0  0
  9 11  1  0  0  0  0
  9 14  2  0  0  0  0
 10 12  2  0  0  0  0
 10 13  1  0  0  0  0
 11 15  1  0  0  0  0
 11 46  1  0  0  0  0
 13 18  1  0  0  0  0
 13 20  2  0  0  0  0
 15 16  1  0  0  0  0
 15 17  1  0  0  0  0
 15 47  1  0  0  0  0
 16 19  1  0  0  0  0
 16 48  1  0  0  0  0
 16 49  1  0  0  0  0
 17 21  1  0  0  0  0
 17 50  1  0  0  0  0
 17 51  1  0  0  0  0
 18 22  2  0  0  0  0
 18 52  1  0  0  0  0
 19 21  1  0  0  0  0
 19 53  1  0  0  0  0
 19 54  1  0  0  0  0
 20 23  1  0  0  0  0
 20 27  1  0  0  0  0
 21 28  1  0  0  0  0
 22 24  1  0  0  0  0
 22 25  1  0  0  0  0
 23 55  1  0  0  0  0
 24 56  1  0  0  0  0
 25 26  1  0  0  0  0
 25 27  2  0  0  0  0
 26 57  1  0  0  0  0
 27 58  1  0  0  0  0
 28 29  2  0  0  0  0
 28 30  1  0  0  0  0
 30 31  1  0  0  0  0
 30 32  2  0  0  0  0
 31 37  1  0  0  0  0
 31 38  2  0  0  0  0
 32 33  1  0  0  0  0
 32 34  1  0  0  0  0
 33 59  1  0  0  0  0
 33 60  1  0  0  0  0
 33 61  1  0  0  0  0
 34 35  2  0  0  0  0
 34 62  1  0  0  0  0
 35 36  1  0  0  0  0
 35 38  1  0  0  0  0
 36 63  1  0  0  0  0
 37 64  1  0  0  0  0
 38 65  1  0  0  0  0
M  END
> <rseq>
1

> <mseq>
505

> <S>
-7.989718

> <rmsd_refine>
1.906437

> <E_conf>
-11.39431

> <E_score1>
-10.50709

> <E_refine>
-44.73627

> <E_score2>
-7.989718

>  <$File>
outputs/pdb_4j58_cleaned.pdb_2024_06_17__22_47_40_V2_BS398_MIN1_/SDF/sdf_db.sdf

> <Rec_index>
1

>  <PLIF_raw>
[[37,14],[2222,954],[148,62],[3,2],[1.8,2.2]]

> <FP:PLIF>
20 23 39 40

>  <PLIF_ligidx>
[14,14,37,37]

$$$$
505
  MOE2022           3D

 62 65  0  0  1  0  0  0  0  0999 V2000
    2.6110   16.2500   20.8750 C   0  0  0  0  0  0  0  0  0  0  0  0
    1.3560   15.7190   21.1270 C   0  0  0  0  0  0  0  0  0  0  0  0
    2.8430   16.9660   19.7090 C   0  0  0  0  0  0  0  0  0  0  0  0
    0.3310   15.8910   20.2040 C   0  0  0  0  0  0  0  0  0  0  0  0
    0.5660   16.6010   19.0290 C   0  0  0  0  0  0  0  0  0  0  0  0
    1.8210   17.1520   18.7740 C   0  0  0  0  0  0  0  0  0  0  0  0
    2.0540   17.9230   17.4830 C   0  0  1  0  0  0  0  0  0  0  0  0
    3.1700   18.8620   17.6010 N   0  0  0  0  0  0  0  0  0  0  0  0
    2.3030   16.9950   16.3050 C   0  0  0  0  0  0  0  0  0  0  0  0
    3.0950   20.2290   17.6270 C   0  0  0  0  0  0  0  0  0  0  0  0
    1.5330   17.1790   15.2210 N   0  0  0  0  0  0  0  0  0  0  0  0
    1.9930   20.7660   17.5330 O   0  0  0  0  0  0  0  0  0  0  0  0
    4.3580   20.9500   17.7660 C   0  0  0  0  0  0  0  0  0  0  0  0
    3.2410   16.1940   16.3120 O   0  0  0  0  0  0  0  0  0  0  0  0
    1.7840   16.5150   13.9490 C   0  0  1  0  0  0  0  0  0  0  0  0
    0.6200   16.6030   12.9830 C   0  0  0  0  0  0  0  0  0  0  0  0
    2.9350   17.1380   13.1600 C   0  0  0  0  0  0  0  0  0  0  0  0
    5.5400   20.3860   17.2520 C   0  0  0  0  0  0  0  0  0  0  0  0
    1.2820   16.4910   11.6060 C   0  0  0  0  0  0  0  0  0  0  0  0
    4.4470   22.2040   18.4080 C   0  0  0  0  0  0  0  0  0  0  0  0
    2.6760   16.9600   11.7230 N   0  0  0  0  0  0  0  0  0  0  0  0
    6.7490   21.0560   17.3740 C   0  0  0  0  0  0  0  0  0  0  0  0
    3.3440   22.7810   18.9730 O   0  0  0  0  0  0  0  0  0  0  0  0
    3.6690   16.2590   10.9940 C   0  0  0  0  0  0  0  0  0  0  0  0
    6.8040   22.3120   17.9840 C   0  0  0  0  0  0  0  0  0  0  0  0
    7.9900   22.9730   18.0670 O   0  0  0  0  0  0  0  0  0  0  0  0
    7.8940   20.4700   16.8930 O   0  0  0  0  0  0  0  0  0  0  0  0
    5.6550   22.8930   18.5090 C   0  0  0  0  0  0  0  0  0  0  0  0
    4.3600   16.9340    9.9590 C   0  0  0  0  0  0  0  0  0  0  0  0
    4.1180   18.3380    9.6350 C   0  0  0  0  0  0  0  0  0  0  0  0
    3.9930   14.9180   11.2860 C   0  0  0  0  0  0  0  0  0  0  0  0
    3.3230   14.2360   12.2840 O   0  0  0  0  0  0  0  0  0  0  0  0
    5.3280   16.2290    9.2230 C   0  0  0  0  0  0  0  0  0  0  0  0
    4.9980   14.2690   10.5680 C   0  0  0  0  0  0  0  0  0  0  0  0
    3.9490   18.6690    8.4290 O   0  5  0  0  0  0  0  0  0  0  0  0
    4.1480   19.2140   10.5440 O   0  0  0  0  0  0  0  0  0  0  0  0
    5.3770   12.9840   10.8590 O   0  0  0  0  0  0  0  0  0  0  0  0
    5.6560   14.9160    9.5260 C   0  0  0  0  0  0  0  0  0  0  0  0
    3.3940   16.1060   21.5710 H   0  0  0  0  0  0  0  0  0  0  0  0
    1.1950   15.1850   22.0220 H   0  0  0  0  0  0  0  0  0  0  0  0
    3.8060   17.3690   19.5430 H   0  0  0  0  0  0  0  0  0  0  0  0
   -0.6290   15.4850   20.3910 H   0  0  0  0  0  0  0  0  0  0  0  0
   -0.2190   16.7230   18.3270 H   0  0  0  0  0  0  0  0  0  0  0  0
    1.1520   18.4860   17.2800 H   0  0  0  0  0  0  0  0  0  0  0  0
    4.0990   18.4320   17.7080 H   0  0  0  0  0  0  0  0  0  0  0  0
    0.7980   17.8700   15.2460 H   0  0  0  0  0  0  0  0  0  0  0  0
    2.0170   15.4630   14.1180 H   0  0  0  0  0  0  0  0  0  0  0  0
   -0.1080   15.8090   13.1530 H   0  0  0  0  0  0  0  0  0  0  0  0
    0.1450   17.5820   13.0650 H   0  0  0  0  0  0  0  0  0  0  0  0
    2.9990   18.1980   13.3690 H   0  0  0  0  0  0  0  0  0  0  0  0
    3.8720   16.7060   13.4660 H   0  0  0  0  0  0  0  0  0  0  0  0
    5.5130   19.4510   16.7580 H   0  0  0  0  0  0  0  0  0  0  0  0
    1.2570   15.4640   11.2690 H   0  0  0  0  0  0  0  0  0  0  0  0
    0.7460   17.0700   10.8670 H   0  0  0  0  0  0  0  0  0  0  0  0
    2.5520   22.2250   18.8120 H   0  0  0  0  0  0  0  0  0  0  0  0
    8.7000   22.4280   17.6700 H   0  0  0  0  0  0  0  0  0  0  0  0
    7.7370   19.5320   16.6630 H   0  0  0  0  0  0  0  0  0  0  0  0
    5.6980   23.8420   18.9770 H   0  0  0  0  0  0  0  0  0  0  0  0
    3.7220   13.3610   12.4570 H   0  0  0  0  0  0  0  0  0  0  0  0
    5.8260   16.7120    8.4220 H   0  0  0  0  0  0  0  0  0  0  0  0
    4.9610   12.6640   11.6840 H   0  0  0  0  0  0  0  0  0  0  0  0
    6.4010   14.4090    8.9700 H   0  0  0  0  0  0  0  0  0  0  0  0
  1  2  2  0  0  0  0
  1  3  1  0  0  0  0
  1 39  1  0  0  0  0
  2  4  1  0  0  0  0
  2 40  1  0  0  0  0
  3  6  2  0  0  0  0
  3 41  1  0  0  0  0
  4  5  2  0  0  0  0
  4 42  1  0  0  0  0
  5  6  1  0  0  0  0
  5 43  1  0  0  0  0
  6  7  1  0  0  0  0
  7  8  1  0  0  0  0
  7  9  1  0  0  0  0
  7 44  1  0  0  0  0
  8 10  1  0  0  0  0
  8 45  1  0  0  0  0
  9 11  1  0  0  0  0
  9 14  2  0  0  0  0
 10 12  2  0  0  0  0
 10 13  1  0  0  0  0
 11 15  1  0  0  0  0
 11 46  1  0  0  0  0
 13 18  1  0  0  0  0
 13 20  2  0  0  0  0
 15 16  1  0  0  0  0
 15 17  1  0  0  0  0
 15 47  1  0  0  0  0
 16 19  1  0  0  0  0
 16 48  1  0  0  0  0
 16 49  1  0  0  0  0
 17 21  1  0  0  0  0
 17 50  1  0  0  0  0
 17 51  1  0  0  0  0
 18 22  2  0  0  0  0
 18 52  1  0  0  0  0
 19 21  1  0  0  0  0
 19 53  1  0  0  0  0
 19 54  1  0  0  0  0
 20 23  1  0  0  0  0
 20 28  1  0  0  0  0
 21 24  1  0  0  0  0
 22 25  1  0  0  0  0
 22 27  1  0  0  0  0
 23 55  1  0  0  0  0
 24 29  1  0  0  0  0
 24 31  2  0  0  0  0
 25 26  1  0  0  0  0
 25 28  2  0  0  0  0
 26 56  1  0  0  0  0
 27 57  1  0  0  0  0
 28 58  1  0  0  0  0
 29 30  1  0  0  0  0
 29 33  2  0  0  0  0
 30 35  1  0  0  0  0
 30 36  2  0  0  0  0
 31 32  1  0  0  0  0
 31 34  1  0  0  0  0
 32 59  1  0  0  0  0
 33 38  1  0  0  0  0
 33 60  1  0  0  0  0
 34 37  1  0  0  0  0
 34 38  2  0  0  0  0
 37 61  1  0  0  0  0
 38 62  1  0  0  0  0
M  CHG  1  35  -1
M  END
> <rseq>
1

> <mseq>
506

> <S>
-7.438061

> <rmsd_refine>
1.516909

> <E_conf>
-55.26389

> <E_score1>
-11.39966

> <E_refine>
-45.272

> <E_score2>
-7.438061

>  <$File>
outputs/pdb_4j58_cleaned.pdb_2024_06_17__22_47_40_V2_BS398_MIN1_/SDF/sdf_db.sdf

> <Rec_index>
1

>  <PLIF_raw>
[[27,32,37,14,36,36,24,31,34,38,33,29],[953,1056,1056,954,823,829,823,823,823,823,823,823],[62,70,70,62,54,54,54,54,54,54,54,54],[1,3,3,2,7,7,10,10,10,10,10,10],[0.8,2.4,3.1,1.7,1.02824457,4.353959479,0.6,0.6,0.6,0.6,0.6,0.6]]

> <FP:PLIF>
1 16 2 28 20 23 3 4

>  <PLIF_ligidx>
[[36,36],36,[24,31,34,38,33,29],27,14,14,[32,37],[32,37]]

$$$$
506
  MOE2022           3D

 68 71  0  0  1  0  0  0  0  0999 V2000
    2.3330   16.6630   19.1070 O   0  0  0  0  0  0  0  0  0  0  0  0
    1.4170   16.8800   18.3140 C   0  0  0  0  0  0  0  0  0  0  0  0
    1.6250   17.7700   17.2900 N   0  0  0  0  0  0  0  0  0  0  0  0
    0.1140   16.2120   18.3830 C   0  0  0  0  0  0  0  0  0  0  0  0
   -1.0080   16.7230   17.7110 C   0  0  0  0  0  0  0  0  0  0  0  0
   -2.2250   16.0530   17.7530 C   0  0  0  0  0  0  0  0  0  0  0  0
   -0.0260   15.0210   19.1090 C   0  0  0  0  0  0  0  0  0  0  0  0
    2.9470   18.1230   16.7800 C   0  0  1  0  0  0  0  0  0  0  0  0
   -1.2430   14.3490   19.1400 C   0  0  0  0  0  0  0  0  0  0  0  0
   -2.3430   14.8640   18.4640 C   0  0  0  0  0  0  0  0  0  0  0  0
    2.9530   18.1470   15.2490 C   0  0  0  0  0  0  0  0  0  0  0  0
    2.4920   17.0410   14.5140 C   0  0  0  0  0  0  0  0  0  0  0  0
    2.1100   15.8860   15.1400 O   0  0  0  0  0  0  0  0  0  0  0  0
    2.4180   17.0640   13.1270 C   0  0  0  0  0  0  0  0  0  0  0  0
    2.8660   18.1910   12.4510 C   0  0  0  0  0  0  0  0  0  0  0  0
    3.4330   19.4290   17.4340 C   0  0  0  0  0  0  0  0  0  0  0  0
    2.7760   18.2170   11.0760 O   0  0  0  0  0  0  0  0  0  0  0  0
    3.3800   19.2860   13.1460 C   0  0  0  0  0  0  0  0  0  0  0  0
    4.5820   20.0930   16.6600 C   0  0  1  0  0  0  0  0  0  0  0  0
    3.4300   19.2630   14.5430 C   0  0  0  0  0  0  0  0  0  0  0  0
    3.9160   17.9460   10.2070 C   0  0  0  0  0  0  0  0  0  0  0  0
    4.0000   20.4620   15.2830 C   0  0  0  0  0  0  0  0  0  0  0  0
    4.3460   16.4830   10.1790 C   0  0  0  0  0  0  0  0  0  0  0  0
    5.1700   21.3290   17.3800 C   0  0  0  0  0  0  0  0  0  0  0  0
    4.2200   15.7610   11.1550 O   0  0  0  0  0  0  0  0  0  0  0  0
    4.9350   15.9510    9.0460 N   0  0  0  0  0  0  0  0  0  0  0  0
    5.1500   16.7640    7.9280 O   0  0  0  0  0  0  0  0  0  0  0  0
    6.4160   21.0430   18.2510 C   0  0  0  0  0  0  0  0  0  0  0  0
    6.9790   22.3660   18.7910 C   0  0  0  0  0  0  0  0  0  0  0  0
    6.1450   20.0960   19.4290 C   0  0  0  0  0  0  0  0  0  0  0  0
    5.3340   14.5880    8.9350 C   0  0  0  0  0  0  0  0  0  0  0  0
    4.7890   13.7540    7.9490 C   0  0  0  0  0  0  0  0  0  0  0  0
    6.2520   14.0680    9.8570 C   0  0  0  0  0  0  0  0  0  0  0  0
    3.9170   14.2490    7.0430 F   0  0  0  0  0  0  0  0  0  0  0  0
    6.5820   12.7150    9.8090 C   0  0  0  0  0  0  0  0  0  0  0  0
    6.0020   11.9080    8.8310 C   0  0  0  0  0  0  0  0  0  0  0  0
    6.3200   10.5980    8.7980 F   0  0  0  0  0  0  0  0  0  0  0  0
    5.1110   12.4050    7.8840 C   0  0  0  0  0  0  0  0  0  0  0  0
    0.8480   17.9340   16.6340 H   0  0  0  0  0  0  0  0  0  0  0  0
   -0.9420   17.6270   17.1640 H   0  0  0  0  0  0  0  0  0  0  0  0
   -3.0650   16.4480   17.2420 H   0  0  0  0  0  0  0  0  0  0  0  0
    0.8070   14.6180   19.6250 H   0  0  0  0  0  0  0  0  0  0  0  0
    3.6390   17.3440   17.0610 H   0  0  0  0  0  0  0  0  0  0  0  0
   -1.3370   13.4380   19.6710 H   0  0  0  0  0  0  0  0  0  0  0  0
   -3.2690   14.3490   18.4890 H   0  0  0  0  0  0  0  0  0  0  0  0
    1.8250   15.2180   14.4860 H   0  0  0  0  0  0  0  0  0  0  0  0
    2.0340   16.2340   12.5910 H   0  0  0  0  0  0  0  0  0  0  0  0
    2.5970   20.1290   17.4930 H   0  0  0  0  0  0  0  0  0  0  0  0
    3.7390   19.1970   18.4520 H   0  0  0  0  0  0  0  0  0  0  0  0
    3.7210   20.1330   12.6110 H   0  0  0  0  0  0  0  0  0  0  0  0
    5.3770   19.3640   16.5110 H   0  0  0  0  0  0  0  0  0  0  0  0
    3.6560   18.2810    9.2130 H   0  0  0  0  0  0  0  0  0  0  0  0
    4.7450   18.5710   10.5010 H   0  0  0  0  0  0  0  0  0  0  0  0
    3.2080   21.2020   15.4070 H   0  0  0  0  0  0  0  0  0  0  0  0
    4.7870   20.9080   14.6750 H   0  0  0  0  0  0  0  0  0  0  0  0
    5.4710   22.0550   16.6220 H   0  0  0  0  0  0  0  0  0  0  0  0
    4.3950   21.8010   17.9870 H   0  0  0  0  0  0  0  0  0  0  0  0
    5.3700   16.1650    7.1860 H   0  0  0  0  0  0  0  0  0  0  0  0
    7.1830   20.5880   17.6210 H   0  0  0  0  0  0  0  0  0  0  0  0
    7.8710   22.1740   19.3900 H   0  0  0  0  0  0  0  0  0  0  0  0
    7.2540   23.0190   17.9620 H   0  0  0  0  0  0  0  0  0  0  0  0
    6.2330   22.8680   19.4070 H   0  0  0  0  0  0  0  0  0  0  0  0
    7.0330   20.0190   20.0580 H   0  0  0  0  0  0  0  0  0  0  0  0
    5.3100   20.4630   20.0250 H   0  0  0  0  0  0  0  0  0  0  0  0
    5.9130   19.1010   19.0550 H   0  0  0  0  0  0  0  0  0  0  0  0
    6.6820   14.6960   10.5920 H   0  0  0  0  0  0  0  0  0  0  0  0
    7.2630   12.3030   10.5080 H   0  0  0  0  0  0  0  0  0  0  0  0
    4.6890   11.7740    7.1450 H   0  0  0  0  0  0  0  0  0  0  0  0
  1  2  2  0  0  0  0
  2  3  1  0  0  0  0
  2  4  1  0  0  0  0
  3  8  1  0  0  0  0
  3 39  1  0  0  0  0
  4  5  2  0  0  0  0
  4  7  1  0  0  0  0
  5  6  1  0  0  0  0
  5 40  1  0  0  0  0
  6 10  2  0  0  0  0
  6 41  1  0  0  0  0
  7  9  2  0  0  0  0
  7 42  1  0  0  0  0
  8 11  1  0  0  0  0
  8 16  1  0  0  0  0
  8 43  1  0  0  0  0
  9 10  1  0  0  0  0
  9 44  1  0  0  0  0
 10 45  1  0  0  0  0
 11 12  1  0  0  0  0
 11 20  2  0  0  0  0
 12 13  1  0  0  0  0
 12 14  2  0  0  0  0
 13 46  1  0  0  0  0
 14 15  1  0  0  0  0
 14 47  1  0  0  0  0
 15 17  1  0  0  0  0
 15 18  2  0  0  0  0
 16 19  1  0  0  0  0
 16 48  1  0  0  0  0
 16 49  1  0  0  0  0
 17 21  1  0  0  0  0
 18 20  1  0  0  0  0
 18 50  1  0  0  0  0
 19 22  1  0  0  0  0
 19 24  1  0  0  0  0
 19 51  1  0  0  0  0
 20 22  1  0  0  0  0
 21 23  1  0  0  0  0
 21 52  1  0  0  0  0
 21 53  1  0  0  0  0
 22 54  1  0  0  0  0
 22 55  1  0  0  0  0
 23 25  2  0  0  0  0
 23 26  1  0  0  0  0
 24 28  1  0  0  0  0
 24 56  1  0  0  0  0
 24 57  1  0  0  0  0
 26 27  1  0  0  0  0
 26 31  1  0  0  0  0
 27 58  1  0  0  0  0
 28 29  1  0  0  0  0
 28 30  1  0  0  0  0
 28 59  1  0  0  0  0
 29 60  1  0  0  0  0
 29 61  1  0  0  0  0
 29 62  1  0  0  0  0
 30 63  1  0  0  0  0
 30 64  1  0  0  0  0
 30 65  1  0  0  0  0
 31 32  1  0  0  0  0
 31 33  2  0  0  0  0
 32 34  1  0  0  0  0
 32 38  2  0  0  0  0
 33 35  1  0  0  0  0
 33 66  1  0  0  0  0
 35 36  2  0  0  0  0
 35 67  1  0  0  0  0
 36 37  1  0  0  0  0
 36 38  1  0  0  0  0
 38 68  1  0  0  0  0
M  END
> <rseq>
1

> <mseq>
507

> <S>
-7.320652

> <rmsd_refine>
1.728438

> <E_conf>
14.38927

> <E_score1>
-13.02834

> <E_refine>
-38.63306

> <E_score2>
-7.320652

>  <$File>
outputs/pdb_4j58_cleaned.pdb_2024_06_17__22_47_40_V2_BS398_MIN1_/SDF/sdf_db.sdf

> <Rec_index>
1

>  <PLIF_raw>
[[],[],[],[],[]]

>  <PLIF_ligidx>
[]

$$$$
507
  MOE2022           3D

 65 69  0  0  1  0  0  0  0  0999 V2000
    2.2660   16.2970   20.6270 C   0  0  0  0  0  0  0  0  0  0  0  0
    0.9620   15.8360   20.7330 C   0  0  0  0  0  0  0  0  0  0  0  0
    2.6780   16.9510   19.4740 C   0  0  0  0  0  0  0  0  0  0  0  0
    0.0720   16.0160   19.6810 C   0  0  0  0  0  0  0  0  0  0  0  0
    0.4840   16.6740   18.5260 C   0  0  0  0  0  0  0  0  0  0  0  0
    1.7870   17.1560   18.4160 C   0  0  0  0  0  0  0  0  0  0  0  0
    2.2150   17.8810   17.1480 C   0  0  1  0  0  0  0  0  0  0  0  0
    3.2120   18.9160   17.4560 N   0  0  0  0  0  0  0  0  0  0  0  0
    2.6670   16.8970   16.0730 C   0  0  0  0  0  0  0  0  0  0  0  0
    4.0300   19.5630   16.5600 C   0  0  0  0  0  0  0  0  0  0  0  0
    1.9790   16.9220   14.9230 N   0  0  0  0  0  0  0  0  0  0  0  0
    3.7300   19.5270   15.3670 O   0  0  0  0  0  0  0  0  0  0  0  0
    5.2210   20.2370   17.0880 C   0  0  0  0  0  0  0  0  0  0  0  0
    3.6380   16.1570   16.2300 O   0  0  0  0  0  0  0  0  0  0  0  0
    2.4120   16.2500   13.7060 C   0  0  1  0  0  0  0  0  0  0  0  0
    1.9140   14.8220   13.6090 C   0  0  0  0  0  0  0  0  0  0  0  0
    1.8750   16.9010   12.4380 C   0  0  0  0  0  0  0  0  0  0  0  0
    5.6950   19.9200   18.3750 C   0  0  0  0  0  0  0  0  0  0  0  0
    1.6370   14.5910   12.1130 C   0  0  1  0  0  0  0  0  0  0  0  0
    5.9520   21.1880   16.3360 C   0  0  0  0  0  0  0  0  0  0  0  0
    1.8590   15.8730   11.3870 N   0  0  0  0  0  0  0  0  0  0  0  0
    6.8570   20.5010   18.8590 C   0  0  0  0  0  0  0  0  0  0  0  0
    5.5290   21.5810   15.0970 O   0  0  0  0  0  0  0  0  0  0  0  0
    2.9960   15.9660   10.5210 C   0  0  0  0  0  0  0  0  0  0  0  0
    7.5840   21.4040   18.0770 C   0  0  0  0  0  0  0  0  0  0  0  0
    8.7520   21.9320   18.5460 O   0  0  0  0  0  0  0  0  0  0  0  0
    7.2790   20.1740   20.1170 O   0  0  0  0  0  0  0  0  0  0  0  0
    7.1290   21.7620   16.8150 C   0  0  0  0  0  0  0  0  0  0  0  0
    3.1370   17.0620    9.6430 C   0  0  0  0  0  0  0  0  0  0  0  0
    3.9970   14.9740   10.5590 C   0  0  0  0  0  0  0  0  0  0  0  0
    2.0400   18.1090    9.4740 C   0  0  0  0  0  0  0  0  0  0  0  0
    4.3250   17.1700    8.9060 C   0  0  0  0  0  0  0  0  0  0  0  0
    3.8160   13.8170   11.3000 O   0  0  0  0  0  0  0  0  0  0  0  0
    5.1750   15.1330    9.8320 C   0  0  0  0  0  0  0  0  0  0  0  0
    4.5100   18.2310    8.0590 O   0  0  0  0  0  0  0  0  0  0  0  0
    6.1770   14.2030    9.9300 O   0  0  0  0  0  0  0  0  0  0  0  0
    5.3490   16.2290    8.9960 C   0  0  0  0  0  0  0  0  0  0  0  0
    2.4450   13.4320   11.5170 C   0  0  0  0  0  0  0  0  0  0  0  0
    2.9470   16.1490   21.4250 H   0  0  0  0  0  0  0  0  0  0  0  0
    0.6510   15.3510   21.6150 H   0  0  0  0  0  0  0  0  0  0  0  0
    3.6770   17.2930   19.4100 H   0  0  0  0  0  0  0  0  0  0  0  0
   -0.9220   15.6570   19.7580 H   0  0  0  0  0  0  0  0  0  0  0  0
   -0.2020   16.8080   17.7290 H   0  0  0  0  0  0  0  0  0  0  0  0
    1.3440   18.4030   16.7740 H   0  0  0  0  0  0  0  0  0  0  0  0
    3.3900   19.0620   18.4610 H   0  0  0  0  0  0  0  0  0  0  0  0
    1.1880   17.5430   14.8460 H   0  0  0  0  0  0  0  0  0  0  0  0
    3.5000   16.2530   13.6320 H   0  0  0  0  0  0  0  0  0  0  0  0
    2.6650   14.1360   13.9970 H   0  0  0  0  0  0  0  0  0  0  0  0
    0.9830   14.7020   14.1650 H   0  0  0  0  0  0  0  0  0  0  0  0
    0.8640   17.2490   12.6010 H   0  0  0  0  0  0  0  0  0  0  0  0
    2.4680   17.7670   12.1770 H   0  0  0  0  0  0  0  0  0  0  0  0
    5.1810   19.2240   18.9850 H   0  0  0  0  0  0  0  0  0  0  0  0
    0.5900   14.3350   12.0160 H   0  0  0  0  0  0  0  0  0  0  0  0
    4.6910   21.1260   14.8690 H   0  0  0  0  0  0  0  0  0  0  0  0
    8.9690   21.5420   19.4170 H   0  0  0  0  0  0  0  0  0  0  0  0
    6.7290   19.4580   20.4880 H   0  0  0  0  0  0  0  0  0  0  0  0
    7.6690   22.4590   16.2270 H   0  0  0  0  0  0  0  0  0  0  0  0
    1.0650   17.7290    9.7800 H   0  0  0  0  0  0  0  0  0  0  0  0
    2.2710   18.9950   10.0650 H   0  0  0  0  0  0  0  0  0  0  0  0
    1.9410   18.4030    8.4290 H   0  0  0  0  0  0  0  0  0  0  0  0
    3.7260   18.8130    8.0710 H   0  0  0  0  0  0  0  0  0  0  0  0
    5.9020   13.4910   10.5420 H   0  0  0  0  0  0  0  0  0  0  0  0
    6.2390   16.3420    8.4320 H   0  0  0  0  0  0  0  0  0  0  0  0
    2.4110   12.5610   12.1710 H   0  0  0  0  0  0  0  0  0  0  0  0
    2.0190   13.1530   10.5530 H   0  0  0  0  0  0  0  0  0  0  0  0
  1  2  2  0  0  0  0
  1  3  1  0  0  0  0
  1 39  1  0  0  0  0
  2  4  1  0  0  0  0
  2 40  1  0  0  0  0
  3  6  2  0  0  0  0
  3 41  1  0  0  0  0
  4  5  2  0  0  0  0
  4 42  1  0  0  0  0
  5  6  1  0  0  0  0
  5 43  1  0  0  0  0
  6  7  1  0  0  0  0
  7  8  1  0  0  0  0
  7  9  1  0  0  0  0
  7 44  1  0  0  0  0
  8 10  1  0  0  0  0
  8 45  1  0  0  0  0
  9 11  1  0  0  0  0
  9 14  2  0  0  0  0
 10 12  2  0  0  0  0
 10 13  1  0  0  0  0
 11 15  1  0  0  0  0
 11 46  1  0  0  0  0
 13 18  1  0  0  0  0
 13 20  2  0  0  0  0
 15 16  1  0  0  0  0
 15 17  1  0  0  0  0
 15 47  1  0  0  0  0
 16 19  1  0  0  0  0
 16 48  1  0  0  0  0
 16 49  1  0  0  0  0
 17 21  1  0  0  0  0
 17 50  1  0  0  0  0
 17 51  1  0  0  0  0
 18 22  2  0  0  0  0
 18 52  1  0  0  0  0
 19 21  1  0  0  0  0
 19 38  1  0  0  0  0
 19 53  1  0  0  0  0
 20 23  1  0  0  0  0
 20 28  1  0  0  0  0
 21 24  1  0  0  0  0
 22 25  1  0  0  0  0
 22 27  1  0  0  0  0
 23 54  1  0  0  0  0
 24 29  1  0  0  0  0
 24 30  2  0  0  0  0
 25 26  1  0  0  0  0
 25 28  2  0  0  0  0
 26 55  1  0  0  0  0
 27 56  1  0  0  0  0
 28 57  1  0  0  0  0
 29 31  1  0  0  0  0
 29 32  2  0  0  0  0
 30 33  1  0  0  0  0
 30 34  1  0  0  0  0
 31 58  1  0  0  0  0
 31 59  1  0  0  0  0
 31 60  1  0  0  0  0
 32 35  1  0  0  0  0
 32 37  1  0  0  0  0
 33 38  1  0  0  0  0
 34 36  1  0  0  0  0
 34 37  2  0  0  0  0
 35 61  1  0  0  0  0
 36 62  1  0  0  0  0
 37 63  1  0  0  0  0
 38 64  1  0  0  0  0
 38 65  1  0  0  0  0
M  END
> <rseq>
1

> <mseq>
508

> <S>
-7.650117

> <rmsd_refine>
1.555572

> <E_conf>
9.801865

> <E_score1>
-10.53986

> <E_refine>
-44.69381

> <E_score2>
-7.650117

>  <$File>
outputs/pdb_4j58_cleaned.pdb_2024_06_17__22_47_40_V2_BS398_MIN1_/SDF/sdf_db.sdf

> <Rec_index>
1

>  <PLIF_raw>
[[14,26,26,26,26,26,26,24,30,34,37,32,29],[954,1651,1655,1659,1657,1653,1650,823,823,823,823,823,823],[62,112,112,112,112,112,112,54,54,54,54,54,54],[2,10,10,10,10,10,10,10,10,10,10,10,10],[2.6,2.2,2.2,2.2,2.2,2.2,2.2,0.6,0.6,0.6,0.6,0.6,0.6]]

> <FP:PLIF>
2 20 23 15 47

>  <PLIF_ligidx>
[[24,30,34,37,32,29],14,14,[26,26,26,26,26,26],[26,26,26,26,26,26]]

$$$$
526
  MOE2022           3D

 71 75  0  0  1  0  0  0  0  0999 V2000
    1.6490   15.9690   19.6660 C   0  0  0  0  0  0  0  0  0  0  0  0
    2.0180   16.4660   18.4170 C   0  0  0  0  0  0  0  0  0  0  0  0
    0.3100   15.7320   19.9540 C   0  0  0  0  0  0  0  0  0  0  0  0
   -0.6470   15.9960   18.9780 C   0  0  0  0  0  0  0  0  0  0  0  0
   -1.9640   15.7500   19.2390 O   0  0  0  0  0  0  0  0  0  0  0  0
    1.0500   16.7570   17.4490 C   0  0  0  0  0  0  0  0  0  0  0  0
   -0.2910   16.5150   17.7360 C   0  0  0  0  0  0  0  0  0  0  0  0
    1.4320   17.3170   16.0860 C   0  0  1  0  0  0  0  0  0  0  0  0
    1.8050   18.7330   16.0730 N   0  0  0  0  0  0  0  0  0  0  0  0
    2.5350   19.3800   17.1920 C   0  0  0  0  0  0  0  0  0  0  0  0
    1.7010   19.4480   14.8990 C   0  0  0  0  0  0  0  0  0  0  0  0
    1.5160   20.6630   14.9200 O   0  0  0  0  0  0  0  0  0  0  0  0
    2.4480   16.5240   15.4850 O   0  0  0  0  0  0  0  0  0  0  0  0
    2.6230   16.4960   14.1230 C   0  0  0  0  0  0  0  0  0  0  0  0
    3.0870   15.2970   13.5940 C   0  0  0  0  0  0  0  0  0  0  0  0
    2.3740   17.5870   13.2710 C   0  0  0  0  0  0  0  0  0  0  0  0
    4.0510   19.2800   17.0990 C   0  0  0  0  0  0  0  0  0  0  0  0
    1.8050   18.8350   13.6620 N   0  0  0  0  0  0  0  0  0  0  0  0
    3.3730   15.1910   12.2380 C   0  0  0  0  0  0  0  0  0  0  0  0
    3.2050   16.2890   11.3950 C   0  0  0  0  0  0  0  0  0  0  0  0
    4.9390   19.8450   18.1940 C   0  0  0  0  0  0  0  0  0  0  0  0
    2.6870   17.4770   11.9120 C   0  0  0  0  0  0  0  0  0  0  0  0
    3.5770   16.1740    9.9250 C   0  0  0  0  0  0  0  0  0  0  0  0
    4.5590   18.7320   16.1620 O   0  0  0  0  0  0  0  0  0  0  0  0
    5.8080   21.0310   17.7680 C   0  0  0  0  0  0  0  0  0  0  0  0
    4.9310   15.5400    9.6660 C   0  0  0  0  0  0  0  0  0  0  0  0
    5.1850   22.0590   16.9280 C   0  0  0  0  0  0  0  0  0  0  0  0
    4.9590   14.4530    9.0480 O   0  0  0  0  0  0  0  0  0  0  0  0
    7.1120   21.1390   18.1090 C   0  0  0  0  0  0  0  0  0  0  0  0
    5.9470   16.1430   10.0750 O   0  5  0  0  0  0  0  0  0  0  0  0
    3.8830   22.6380   17.2890 C   0  0  0  0  0  0  0  0  0  0  0  0
    3.0890   23.2260   16.2860 C   0  0  0  0  0  0  0  0  0  0  0  0
    5.8020   22.4630   15.7910 C   0  0  0  0  0  0  0  0  0  0  0  0
    1.8210   23.7130   16.5920 C   0  0  0  0  0  0  0  0  0  0  0  0
    1.3570   23.6450   17.9020 C   0  0  0  0  0  0  0  0  0  0  0  0
    3.4140   22.6390   18.6120 C   0  0  0  0  0  0  0  0  0  0  0  0
    0.1040   24.0960   18.1920 O   0  0  0  0  0  0  0  0  0  0  0  0
    5.1560   23.4510   14.8490 C   0  0  1  0  0  0  0  0  0  0  0  0
    2.1520   23.1280   18.9200 C   0  0  0  0  0  0  0  0  0  0  0  0
    5.6640   23.2690   13.5150 O   0  0  0  0  0  0  0  0  0  0  0  0
    3.6250   23.3110   14.8680 C   0  0  0  0  0  0  0  0  0  0  0  0
    7.9010   20.1520   18.9380 C   0  0  0  0  0  0  0  0  0  0  0  0
    2.3910   15.7700   20.3940 H   0  0  0  0  0  0  0  0  0  0  0  0
    3.0430   16.6280   18.2040 H   0  0  0  0  0  0  0  0  0  0  0  0
    0.0240   15.3590   20.9010 H   0  0  0  0  0  0  0  0  0  0  0  0
   -2.0870   15.3950   20.1400 H   0  0  0  0  0  0  0  0  0  0  0  0
   -1.0410   16.7190   17.0160 H   0  0  0  0  0  0  0  0  0  0  0  0
    0.5610   17.2100   15.4530 H   0  0  0  0  0  0  0  0  0  0  0  0
    2.2580   20.4230   17.2550 H   0  0  0  0  0  0  0  0  0  0  0  0
    2.2000   18.9990   18.1440 H   0  0  0  0  0  0  0  0  0  0  0  0
    3.2280   14.4630   14.2230 H   0  0  0  0  0  0  0  0  0  0  0  0
    1.5850   19.4690   12.8800 H   0  0  0  0  0  0  0  0  0  0  0  0
    3.7350   14.2740   11.8500 H   0  0  0  0  0  0  0  0  0  0  0  0
    4.3400   20.1120   19.0480 H   0  0  0  0  0  0  0  0  0  0  0  0
    5.5550   19.0400   18.5590 H   0  0  0  0  0  0  0  0  0  0  0  0
    2.5310   18.3050   11.2690 H   0  0  0  0  0  0  0  0  0  0  0  0
    2.8100   15.6090    9.4140 H   0  0  0  0  0  0  0  0  0  0  0  0
    3.5650   17.1510    9.4630 H   0  0  0  0  0  0  0  0  0  0  0  0
    7.6860   21.9680   17.7790 H   0  0  0  0  0  0  0  0  0  0  0  0
    6.7550   22.0910   15.5140 H   0  0  0  0  0  0  0  0  0  0  0  0
    1.2080   24.1310   15.8350 H   0  0  0  0  0  0  0  0  0  0  0  0
    4.0230   22.2640   19.3910 H   0  0  0  0  0  0  0  0  0  0  0  0
   -0.1450   23.8870   19.1130 H   0  0  0  0  0  0  0  0  0  0  0  0
    5.4220   24.4530   15.1570 H   0  0  0  0  0  0  0  0  0  0  0  0
    1.8040   23.1100   19.9180 H   0  0  0  0  0  0  0  0  0  0  0  0
    6.6050   23.5050   13.4870 H   0  0  0  0  0  0  0  0  0  0  0  0
    3.3540   22.3990   14.3370 H   0  0  0  0  0  0  0  0  0  0  0  0
    3.1840   24.1600   14.3460 H   0  0  0  0  0  0  0  0  0  0  0  0
    8.2060   19.3040   18.3430 H   0  0  0  0  0  0  0  0  0  0  0  0
    8.8040   20.6140   19.3090 H   0  0  0  0  0  0  0  0  0  0  0  0
    7.3480   19.7940   19.7950 H   0  0  0  0  0  0  0  0  0  0  0  0
  1  2  2  0  0  0  0
  1  3  1  0  0  0  0
  1 43  1  0  0  0  0
  2  6  1  0  0  0  0
  2 44  1  0  0  0  0
  3  4  2  0  0  0  0
  3 45  1  0  0  0  0
  4  5  1  0  0  0  0
  4  7  1  0  0  0  0
  5 46  1  0  0  0  0
  6  7  2  0  0  0  0
  6  8  1  0  0  0  0
  7 47  1  0  0  0  0
  8  9  1  0  0  0  0
  8 13  1  0  0  0  0
  8 48  1  0  0  0  0
  9 10  1  0  0  0  0
  9 11  1  0  0  0  0
 10 17  1  0  0  0  0
 10 49  1  0  0  0  0
 10 50  1  0  0  0  0
 11 12  2  0  0  0  0
 11 18  1  0  0  0  0
 13 14  1  0  0  0  0
 14 15  2  0  0  0  0
 14 16  1  0  0  0  0
 15 19  1  0  0  0  0
 15 51  1  0  0  0  0
 16 18  1  0  0  0  0
 16 22  2  0  0  0  0
 17 21  1  0  0  0  0
 17 24  2  0  0  0  0
 18 52  1  0  0  0  0
 19 20  2  0  0  0  0
 19 53  1  0  0  0  0
 20 22  1  0  0  0  0
 20 23  1  0  0  0  0
 21 25  1  0  0  0  0
 21 54  1  0  0  0  0
 21 55  1  0  0  0  0
 22 56  1  0  0  0  0
 23 26  1  0  0  0  0
 23 57  1  0  0  0  0
 23 58  1  0  0  0  0
 25 27  1  0  0  0  0
 25 29  2  0  0  0  0
 26 28  2  0  0  0  0
 26 30  1  0  0  0  0
 27 31  1  0  0  0  0
 27 33  2  0  0  0  0
 29 42  1  0  0  0  0
 29 59  1  0  0  0  0
 31 32  1  0  0  0  0
 31 36  2  0  0  0  0
 32 34  2  0  0  0  0
 32 41  1  0  0  0  0
 33 38  1  0  0  0  0
 33 60  1  0  0  0  0
 34 35  1  0  0  0  0
 34 61  1  0  0  0  0
 35 37  1  0  0  0  0
 35 39  2  0  0  0  0
 36 39  1  0  0  0  0
 36 62  1  0  0  0  0
 37 63  1  0  0  0  0
 38 40  1  0  0  0  0
 38 41  1  0  0  0  0
 38 64  1  0  0  0  0
 39 65  1  0  0  0  0
 40 66  1  0  0  0  0
 41 67  1  0  0  0  0
 41 68  1  0  0  0  0
 42 69  1  0  0  0  0
 42 70  1  0  0  0  0
 42 71  1  0  0  0  0
M  CHG  1  30  -1
M  END
> <rseq>
1

> <mseq>
527

> <S>
-6.772214

> <rmsd_refine>
1.708074

> <E_conf>
-192.5052

> <E_score1>
-13.41952

> <E_refine>
-40.22432

> <E_score2>
-6.772214

>  <$File>
outputs/pdb_4j58_cleaned.pdb_2024_06_17__22_47_40_V2_BS398_MIN1_/SDF/sdf_db.sdf

> <Rec_index>
1

>  <PLIF_raw>
[[30,30,30],[823,823,829],[54,54,54],[2,7,7],[6.7,5.104292422,0.8167937008]]

> <FP:PLIF>
6 19 1 16

>  <PLIF_ligidx>
[30,30,[30,30],30]

$$$$
527
  MOE2022           3D

 70 75  0  0  1  0  0  0  0  0999 V2000
    1.2660   15.6550   19.6290 C   0  0  0  0  0  0  0  0  0  0  0  0
    1.8550   16.1550   18.4690 C   0  0  0  0  0  0  0  0  0  0  0  0
   -0.1180   15.6270   19.7520 C   0  0  0  0  0  0  0  0  0  0  0  0
   -0.8980   16.1080   18.7040 C   0  0  0  0  0  0  0  0  0  0  0  0
   -2.2580   16.0630   18.8000 O   0  0  0  0  0  0  0  0  0  0  0  0
    1.0700   16.6680   17.4300 C   0  0  0  0  0  0  0  0  0  0  0  0
   -0.3180   16.6410   17.5560 C   0  0  0  0  0  0  0  0  0  0  0  0
    1.6820   17.2060   16.1430 C   0  0  1  0  0  0  0  0  0  0  0  0
    2.4260   18.4670   16.2280 N   0  0  0  0  0  0  0  0  0  0  0  0
    2.9240   19.0570   17.5040 C   0  0  0  0  0  0  0  0  0  0  0  0
    2.4020   19.2750   15.1070 C   0  0  0  0  0  0  0  0  0  0  0  0
    2.3410   20.5010   15.2040 O   0  0  0  0  0  0  0  0  0  0  0  0
    2.4790   16.2110   15.5070 O   0  0  0  0  0  0  0  0  0  0  0  0
    2.7490   16.2440   14.1550 C   0  0  0  0  0  0  0  0  0  0  0  0
    2.9970   15.0150   13.5540 C   0  0  0  0  0  0  0  0  0  0  0  0
    2.7890   17.4200   13.3820 C   0  0  0  0  0  0  0  0  0  0  0  0
    4.2660   19.7720   17.3950 C   0  0  0  0  0  0  0  0  0  0  0  0
    2.4570   18.7310   13.8370 N   0  0  0  0  0  0  0  0  0  0  0  0
    3.3560   14.9480   12.2120 C   0  0  0  0  0  0  0  0  0  0  0  0
    3.4660   16.1120   11.4530 C   0  0  0  0  0  0  0  0  0  0  0  0
    4.7210   20.7890   18.4340 C   0  0  0  0  0  0  0  0  0  0  0  0
    3.1640   17.3420   12.0360 C   0  0  0  0  0  0  0  0  0  0  0  0
    3.9050   16.0240   10.0000 C   0  0  0  0  0  0  0  0  0  0  0  0
    5.0190   19.4610   16.5160 O   0  0  0  0  0  0  0  0  0  0  0  0
    5.4820   21.9830   17.8500 C   0  0  0  0  0  0  0  0  0  0  0  0
    5.2410   15.3370    9.7910 C   0  0  0  0  0  0  0  0  0  0  0  0
    4.8660   23.2580   17.6970 C   0  0  0  0  0  0  0  0  0  0  0  0
    5.2350   14.1780    9.3230 O   0  0  0  0  0  0  0  0  0  0  0  0
    6.8290   21.8080   17.4570 C   0  0  0  0  0  0  0  0  0  0  0  0
    6.2750   15.9730   10.0890 O   0  5  0  0  0  0  0  0  0  0  0  0
    3.4640   23.6130   18.0140 C   0  0  0  0  0  0  0  0  0  0  0  0
    3.1960   24.9290   18.4320 C   0  0  0  0  0  0  0  0  0  0  0  0
    5.6700   24.3100   17.2250 C   0  0  0  0  0  0  0  0  0  0  0  0
    1.9210   25.3130   18.8320 C   0  0  0  0  0  0  0  0  0  0  0  0
    0.8780   24.3980   18.7520 C   0  0  0  0  0  0  0  0  0  0  0  0
    2.3690   22.7470   17.8540 C   0  0  0  0  0  0  0  0  0  0  0  0
   -0.3680   24.7720   19.1570 O   0  0  0  0  0  0  0  0  0  0  0  0
    7.6280   20.5210   17.6260 C   0  0  0  0  0  0  0  0  0  0  0  0
    5.2330   25.6130   17.3000 O   0  0  0  0  0  0  0  0  0  0  0  0
    4.3160   25.9370   18.3710 C   0  0  0  0  0  0  0  0  0  0  0  0
    6.9450   24.1030   16.7280 C   0  0  0  0  0  0  0  0  0  0  0  0
    7.5260   22.8560   16.8600 C   0  0  0  0  0  0  0  0  0  0  0  0
    1.0880   23.1230   18.2390 C   0  0  0  0  0  0  0  0  0  0  0  0
    1.8760   15.2870   20.4120 H   0  0  0  0  0  0  0  0  0  0  0  0
    2.9100   16.1370   18.3740 H   0  0  0  0  0  0  0  0  0  0  0  0
   -0.5740   15.2430   20.6260 H   0  0  0  0  0  0  0  0  0  0  0  0
   -2.5380   15.6540   19.6410 H   0  0  0  0  0  0  0  0  0  0  0  0
   -0.9370   17.0110   16.7790 H   0  0  0  0  0  0  0  0  0  0  0  0
    0.8510   17.3790   15.4710 H   0  0  0  0  0  0  0  0  0  0  0  0
    2.1720   19.7240   17.9010 H   0  0  0  0  0  0  0  0  0  0  0  0
    3.0320   18.3100   18.2700 H   0  0  0  0  0  0  0  0  0  0  0  0
    2.9100   14.1240   14.1150 H   0  0  0  0  0  0  0  0  0  0  0  0
    2.3760   19.4370   13.0910 H   0  0  0  0  0  0  0  0  0  0  0  0
    3.5580   14.0060   11.7690 H   0  0  0  0  0  0  0  0  0  0  0  0
    3.8920   21.1310   19.0230 H   0  0  0  0  0  0  0  0  0  0  0  0
    5.3140   20.2900   19.1860 H   0  0  0  0  0  0  0  0  0  0  0  0
    3.2230   18.2270   11.4560 H   0  0  0  0  0  0  0  0  0  0  0  0
    3.1430   15.5070    9.4340 H   0  0  0  0  0  0  0  0  0  0  0  0
    3.9550   17.0130    9.5650 H   0  0  0  0  0  0  0  0  0  0  0  0
    1.7350   26.2990   19.1720 H   0  0  0  0  0  0  0  0  0  0  0  0
    2.5080   21.8000   17.4170 H   0  0  0  0  0  0  0  0  0  0  0  0
   -1.0000   24.0290   19.0810 H   0  0  0  0  0  0  0  0  0  0  0  0
    7.1480   19.7660   18.2410 H   0  0  0  0  0  0  0  0  0  0  0  0
    7.8310   20.0770   16.6520 H   0  0  0  0  0  0  0  0  0  0  0  0
    8.5890   20.7400   18.0940 H   0  0  0  0  0  0  0  0  0  0  0  0
    3.9300   26.9340   18.2050 H   0  0  0  0  0  0  0  0  0  0  0  0
    4.8590   25.9560   19.3050 H   0  0  0  0  0  0  0  0  0  0  0  0
    7.4750   24.9030   16.2840 H   0  0  0  0  0  0  0  0  0  0  0  0
    8.5190   22.7060   16.5200 H   0  0  0  0  0  0  0  0  0  0  0  0
    0.2780   22.4490   18.1290 H   0  0  0  0  0  0  0  0  0  0  0  0
  1  2  2  0  0  0  0
  1  3  1  0  0  0  0
  1 44  1  0  0  0  0
  2  6  1  0  0  0  0
  2 45  1  0  0  0  0
  3  4  2  0  0  0  0
  3 46  1  0  0  0  0
  4  5  1  0  0  0  0
  4  7  1  0  0  0  0
  5 47  1  0  0  0  0
  6  7  2  0  0  0  0
  6  8  1  0  0  0  0
  7 48  1  0  0  0  0
  8  9  1  0  0  0  0
  8 13  1  0  0  0  0
  8 49  1  0  0  0  0
  9 10  1  0  0  0  0
  9 11  1  0  0  0  0
 10 17  1  0  0  0  0
 10 50  1  0  0  0  0
 10 51  1  0  0  0  0
 11 12  2  0  0  0  0
 11 18  1  0  0  0  0
 13 14  1  0  0  0  0
 14 15  2  0  0  0  0
 14 16  1  0  0  0  0
 15 19  1  0  0  0  0
 15 52  1  0  0  0  0
 16 18  1  0  0  0  0
 16 22  2  0  0  0  0
 17 21  1  0  0  0  0
 17 24  2  0  0  0  0
 18 53  1  0  0  0  0
 19 20  2  0  0  0  0
 19 54  1  0  0  0  0
 20 22  1  0  0  0  0
 20 23  1  0  0  0  0
 21 25  1  0  0  0  0
 21 55  1  0  0  0  0
 21 56  1  0  0  0  0
 22 57  1  0  0  0  0
 23 26  1  0  0  0  0
 23 58  1  0  0  0  0
 23 59  1  0  0  0  0
 25 27  2  0  0  0  0
 25 29  1  0  0  0  0
 26 28  2  0  0  0  0
 26 30  1  0  0  0  0
 27 31  1  0  0  0  0
 27 33  1  0  0  0  0
 29 38  1  0  0  0  0
 29 42  2  0  0  0  0
 31 32  1  0  0  0  0
 31 36  2  0  0  0  0
 32 34  2  0  0  0  0
 32 40  1  0  0  0  0
 33 39  1  0  0  0  0
 33 41  2  0  0  0  0
 34 35  1  0  0  0  0
 34 60  1  0  0  0  0
 35 37  1  0  0  0  0
 35 43  2  0  0  0  0
 36 43  1  0  0  0  0
 36 61  1  0  0  0  0
 37 62  1  0  0  0  0
 38 63  1  0  0  0  0
 38 64  1  0  0  0  0
 38 65  1  0  0  0  0
 39 40  1  0  0  0  0
 40 66  1  0  0  0  0
 40 67  1  0  0  0  0
 41 42  1  0  0  0  0
 41 68  1  0  0  0  0
 42 69  1  0  0  0  0
 43 70  1  0  0  0  0
M  CHG  1  30  -1
M  END
> <rseq>
1

> <mseq>
528

> <S>
-7.214643

> <rmsd_refine>
1.652963

> <E_conf>
-166.1801

> <E_score1>
-12.83465

> <E_refine>
-42.59222

> <E_score2>
-7.214643

>  <$File>
outputs/pdb_4j58_cleaned.pdb_2024_06_17__22_47_40_V2_BS398_MIN1_/SDF/sdf_db.sdf

> <Rec_index>
1

>  <PLIF_raw>
[[37,30,30,30],[1518,823,823,829],[102,54,54,54],[3,2,7,7],[0.5,6,4.994455897,0.6370296979]]

> <FP:PLIF>
6 19 1 16 53

>  <PLIF_ligidx>
[30,30,[30,30],30,37]

$$$$
528
  MOE2022           3D

 70 75  0  0  1  0  0  0  0  0999 V2000
   -0.5540   17.0080   17.3820 C   0  0  0  0  0  0  0  0  0  0  0  0
    0.5070   17.1470   16.4900 C   0  0  0  0  0  0  0  0  0  0  0  0
   -1.7200   17.7420   17.2000 C   0  0  0  0  0  0  0  0  0  0  0  0
   -1.8010   18.6300   16.1320 C   0  0  0  0  0  0  0  0  0  0  0  0
   -2.9320   19.3720   15.9610 O   0  0  0  0  0  0  0  0  0  0  0  0
    0.4070   18.0160   15.3980 C   0  0  0  0  0  0  0  0  0  0  0  0
   -0.7520   18.7720   15.2290 C   0  0  0  0  0  0  0  0  0  0  0  0
    1.5230   18.1310   14.3730 C   0  0  1  0  0  0  0  0  0  0  0  0
    2.4270   19.2670   14.5320 N   0  0  0  0  0  0  0  0  0  0  0  0
    2.6800   19.8450   15.8690 C   0  0  0  0  0  0  0  0  0  0  0  0
    3.2590   19.6310   13.4860 C   0  0  0  0  0  0  0  0  0  0  0  0
    3.9740   20.6340   13.5550 O   0  0  0  0  0  0  0  0  0  0  0  0
    2.2800   16.9260   14.3070 O   0  0  0  0  0  0  0  0  0  0  0  0
    2.8270   16.5520   13.1150 C   0  0  0  0  0  0  0  0  0  0  0  0
    2.9270   15.1850   12.8820 C   0  0  0  0  0  0  0  0  0  0  0  0
    3.2560   17.4750   12.1440 C   0  0  0  0  0  0  0  0  0  0  0  0
    3.7650   19.1560   16.6780 C   0  0  0  0  0  0  0  0  0  0  0  0
    3.2900   18.8940   12.3120 N   0  0  0  0  0  0  0  0  0  0  0  0
    3.4320   14.7270   11.6710 C   0  0  0  0  0  0  0  0  0  0  0  0
    3.8350   15.6310   10.6890 C   0  0  0  0  0  0  0  0  0  0  0  0
    4.2780   19.8090   17.9440 C   0  0  0  0  0  0  0  0  0  0  0  0
    3.7430   17.0020   10.9240 C   0  0  0  0  0  0  0  0  0  0  0  0
    4.4280   15.1190    9.3940 C   0  0  0  0  0  0  0  0  0  0  0  0
    4.1850   18.0810   16.3520 O   0  0  0  0  0  0  0  0  0  0  0  0
    5.3950   20.8240   17.7150 C   0  0  0  0  0  0  0  0  0  0  0  0
    5.9010   14.8090    9.5160 C   0  0  0  0  0  0  0  0  0  0  0  0
    5.1820   22.1430   17.2490 C   0  0  0  0  0  0  0  0  0  0  0  0
    6.3030   13.7130    9.0670 O   0  0  0  0  0  0  0  0  0  0  0  0
    6.7000   20.3690   17.8940 C   0  0  0  0  0  0  0  0  0  0  0  0
    6.6280   15.6820   10.0410 O   0  5  0  0  0  0  0  0  0  0  0  0
    3.8750   22.8260   17.2570 C   0  0  0  0  0  0  0  0  0  0  0  0
    3.5640   23.7060   16.2070 C   0  0  0  0  0  0  0  0  0  0  0  0
    6.2800   22.8550   16.7270 C   0  0  0  0  0  0  0  0  0  0  0  0
    2.3070   24.2950   16.1220 C   0  0  0  0  0  0  0  0  0  0  0  0
    1.3750   24.0590   17.1280 C   0  0  0  0  0  0  0  0  0  0  0  0
    2.9530   22.6930   18.3080 C   0  0  0  0  0  0  0  0  0  0  0  0
    0.1360   24.6180   17.0390 O   0  0  0  0  0  0  0  0  0  0  0  0
    6.0090   24.1310   15.9370 C   0  0  1  0  0  0  0  0  0  0  0  0
    1.6980   23.2820   18.2360 C   0  0  0  0  0  0  0  0  0  0  0  0
    7.0450   24.3990   14.9740 O   0  0  0  0  0  0  0  0  0  0  0  0
    7.5760   22.3780   16.9140 C   0  0  0  0  0  0  0  0  0  0  0  0
    4.6530   24.0440   15.2140 C   0  0  0  0  0  0  0  0  0  0  0  0
    7.7860   21.1510   17.5270 C   0  0  0  0  0  0  0  0  0  0  0  0
   -0.4720   16.3360   18.1970 H   0  0  0  0  0  0  0  0  0  0  0  0
    1.3880   16.5760   16.6410 H   0  0  0  0  0  0  0  0  0  0  0  0
   -2.5340   17.6290   17.8680 H   0  0  0  0  0  0  0  0  0  0  0  0
   -3.5820   19.1800   16.6650 H   0  0  0  0  0  0  0  0  0  0  0  0
   -0.8420   19.4450   14.4150 H   0  0  0  0  0  0  0  0  0  0  0  0
    1.0320   18.2370   13.4140 H   0  0  0  0  0  0  0  0  0  0  0  0
    2.9300   20.8900   15.7630 H   0  0  0  0  0  0  0  0  0  0  0  0
    1.7710   19.8790   16.4520 H   0  0  0  0  0  0  0  0  0  0  0  0
    2.6180   14.4940   13.6240 H   0  0  0  0  0  0  0  0  0  0  0  0
    3.6520   19.4180   11.5030 H   0  0  0  0  0  0  0  0  0  0  0  0
    3.5170   13.6840   11.4970 H   0  0  0  0  0  0  0  0  0  0  0  0
    3.4360   20.2320   18.4490 H   0  0  0  0  0  0  0  0  0  0  0  0
    4.6220   19.0400   18.6230 H   0  0  0  0  0  0  0  0  0  0  0  0
    4.0690   17.6870   10.1840 H   0  0  0  0  0  0  0  0  0  0  0  0
    3.8920   14.2370    9.0720 H   0  0  0  0  0  0  0  0  0  0  0  0
    4.2860   15.8450    8.6050 H   0  0  0  0  0  0  0  0  0  0  0  0
    6.8770   19.4080   18.2990 H   0  0  0  0  0  0  0  0  0  0  0  0
    2.0620   24.9330   15.3120 H   0  0  0  0  0  0  0  0  0  0  0  0
    3.2140   22.1530   19.1780 H   0  0  0  0  0  0  0  0  0  0  0  0
   -0.4210   24.3480   17.7950 H   0  0  0  0  0  0  0  0  0  0  0  0
    5.9910   24.9680   16.6220 H   0  0  0  0  0  0  0  0  0  0  0  0
    0.9990   23.1510   19.0200 H   0  0  0  0  0  0  0  0  0  0  0  0
    7.9040   24.4550   15.4210 H   0  0  0  0  0  0  0  0  0  0  0  0
    8.4120   22.9360   16.5820 H   0  0  0  0  0  0  0  0  0  0  0  0
    4.6960   23.2650   14.4520 H   0  0  0  0  0  0  0  0  0  0  0  0
    4.4430   25.0000   14.7310 H   0  0  0  0  0  0  0  0  0  0  0  0
    8.7720   20.7970   17.6830 H   0  0  0  0  0  0  0  0  0  0  0  0
  1  2  2  0  0  0  0
  1  3  1  0  0  0  0
  1 44  1  0  0  0  0
  2  6  1  0  0  0  0
  2 45  1  0  0  0  0
  3  4  2  0  0  0  0
  3 46  1  0  0  0  0
  4  5  1  0  0  0  0
  4  7  1  0  0  0  0
  5 47  1  0  0  0  0
  6  7  2  0  0  0  0
  6  8  1  0  0  0  0
  7 48  1  0  0  0  0
  8  9  1  0  0  0  0
  8 13  1  0  0  0  0
  8 49  1  0  0  0  0
  9 10  1  0  0  0  0
  9 11  1  0  0  0  0
 10 17  1  0  0  0  0
 10 50  1  0  0  0  0
 10 51  1  0  0  0  0
 11 12  2  0  0  0  0
 11 18  1  0  0  0  0
 13 14  1  0  0  0  0
 14 15  2  0  0  0  0
 14 16  1  0  0  0  0
 15 19  1  0  0  0  0
 15 52  1  0  0  0  0
 16 18  1  0  0  0  0
 16 22  2  0  0  0  0
 17 21  1  0  0  0  0
 17 24  2  0  0  0  0
 18 53  1  0  0  0  0
 19 20  2  0  0  0  0
 19 54  1  0  0  0  0
 20 22  1  0  0  0  0
 20 23  1  0  0  0  0
 21 25  1  0  0  0  0
 21 55  1  0  0  0  0
 21 56  1  0  0  0  0
 22 57  1  0  0  0  0
 23 26  1  0  0  0  0
 23 58  1  0  0  0  0
 23 59  1  0  0  0  0
 25 27  2  0  0  0  0
 25 29  1  0  0  0  0
 26 28  2  0  0  0  0
 26 30  1  0  0  0  0
 27 31  1  0  0  0  0
 27 33  1  0  0  0  0
 29 43  2  0  0  0  0
 29 60  1  0  0  0  0
 31 32  1  0  0  0  0
 31 36  2  0  0  0  0
 32 34  2  0  0  0  0
 32 42  1  0  0  0  0
 33 38  1  0  0  0  0
 33 41  2  0  0  0  0
 34 35  1  0  0  0  0
 34 61  1  0  0  0  0
 35 37  1  0  0  0  0
 35 39  2  0  0  0  0
 36 39  1  0  0  0  0
 36 62  1  0  0  0  0
 37 63  1  0  0  0  0
 38 40  1  0  0  0  0
 38 42  1  0  0  0  0
 38 64  1  0  0  0  0
 39 65  1  0  0  0  0
 40 66  1  0  0  0  0
 41 43  1  0  0  0  0
 41 67  1  0  0  0  0
 42 68  1  0  0  0  0
 42 69  1  0  0  0  0
 43 70  1  0  0  0  0
M  CHG  1  30  -1
M  END
> <rseq>
1

> <mseq>
529

> <S>
-6.303951

> <rmsd_refine>
2.51792

> <E_conf>
-177.7838

> <E_score1>
-12.31505

> <E_refine>
-37.3293

> <E_score2>
-6.303951

>  <$File>
outputs/pdb_4j58_cleaned.pdb_2024_06_17__22_47_40_V2_BS398_MIN1_/SDF/sdf_db.sdf

> <Rec_index>
1

>  <PLIF_raw>
[[24,30,30],[954,823,823],[62,54,54],[2,2,7],[2.3,4.7,3.839647045]]

> <FP:PLIF>
6 19 1 16 20 23

>  <PLIF_ligidx>
[30,30,30,30,24,24]

$$$$
529
  MOE2022           3D

 72 77  0  0  1  0  0  0  0  0999 V2000
    2.5140   16.4700   20.2010 C   0  0  0  0  0  0  0  0  0  0  0  0
    2.5580   16.8980   18.8760 C   0  0  0  0  0  0  0  0  0  0  0  0
    1.3220   16.0170   20.7460 C   0  0  0  0  0  0  0  0  0  0  0  0
    0.1820   15.9980   19.9490 C   0  0  0  0  0  0  0  0  0  0  0  0
   -0.9850   15.5330   20.4820 O   0  0  0  0  0  0  0  0  0  0  0  0
    1.4100   16.9030   18.0790 C   0  0  0  0  0  0  0  0  0  0  0  0
    0.2120   16.4420   18.6260 C   0  0  0  0  0  0  0  0  0  0  0  0
    1.4600   17.3780   16.6250 C   0  0  1  0  0  0  0  0  0  0  0  0
    1.6970   18.8160   16.4160 N   0  0  0  0  0  0  0  0  0  0  0  0
    2.4720   19.6330   17.3740 C   0  0  0  0  0  0  0  0  0  0  0  0
    1.3060   19.4100   15.2310 C   0  0  0  0  0  0  0  0  0  0  0  0
    1.1660   20.6300   15.1330 O   0  0  0  0  0  0  0  0  0  0  0  0
    2.4110   16.6200   15.8830 O   0  0  0  0  0  0  0  0  0  0  0  0
    2.4290   16.5810   14.5040 C   0  0  0  0  0  0  0  0  0  0  0  0
    3.1290   15.5230   13.9440 C   0  0  0  0  0  0  0  0  0  0  0  0
    1.7990   17.5200   13.6660 C   0  0  0  0  0  0  0  0  0  0  0  0
    3.9890   19.5790   17.2320 C   0  0  0  0  0  0  0  0  0  0  0  0
    1.0470   18.6390   14.1170 N   0  0  0  0  0  0  0  0  0  0  0  0
    3.2210   15.3890   12.5640 C   0  0  0  0  0  0  0  0  0  0  0  0
    2.6350   16.3320   11.7240 C   0  0  0  0  0  0  0  0  0  0  0  0
    4.8980   20.1890   18.2920 C   0  0  0  0  0  0  0  0  0  0  0  0
    1.9090   17.3870   12.2780 C   0  0  0  0  0  0  0  0  0  0  0  0
    2.8110   16.2010   10.2220 C   0  0  0  0  0  0  0  0  0  0  0  0
    4.4860   19.0220   16.2930 O   0  0  0  0  0  0  0  0  0  0  0  0
    5.7690   21.3430   17.7750 C   0  0  0  0  0  0  0  0  0  0  0  0
    4.2500   15.9810    9.7940 C   0  0  0  0  0  0  0  0  0  0  0  0
    5.1700   22.4520   17.1320 C   0  0  0  0  0  0  0  0  0  0  0  0
    4.5070   14.9720    9.1010 O   0  0  0  0  0  0  0  0  0  0  0  0
    7.1710   21.2710   17.8420 C   0  0  0  0  0  0  0  0  0  0  0  0
    5.1010   16.8220   10.1570 O   0  5  0  0  0  0  0  0  0  0  0  0
    3.7580   22.8380   17.2770 C   0  0  0  0  0  0  0  0  0  0  0  0
    3.0890   23.4000   16.1760 C   0  0  0  0  0  0  0  0  0  0  0  0
    5.9610   23.2510   16.2930 C   0  0  0  0  0  0  0  0  0  0  0  0
    1.7360   23.7140   16.2540 C   0  0  0  0  0  0  0  0  0  0  0  0
    1.0630   23.5320   17.4580 C   0  0  0  0  0  0  0  0  0  0  0  0
    3.0780   22.7530   18.5020 C   0  0  0  0  0  0  0  0  0  0  0  0
   -0.2680   23.8170   17.5320 O   0  0  0  0  0  0  0  0  0  0  0  0
    5.2880   24.2270   15.3450 C   0  0  0  0  0  0  0  0  0  0  0  0
    1.7330   23.0830   18.5910 C   0  0  0  0  0  0  0  0  0  0  0  0
    3.8970   23.7180   14.9370 C   0  0  0  0  0  0  0  0  0  0  0  0
    7.3400   23.1300   16.3130 C   0  0  0  0  0  0  0  0  0  0  0  0
    7.9170   20.2260   18.6540 C   0  0  0  0  0  0  0  0  0  0  0  0
    7.9440   22.1760   17.1180 C   0  0  0  0  0  0  0  0  0  0  0  0
    3.3940   16.4840   20.7910 H   0  0  0  0  0  0  0  0  0  0  0  0
    3.4740   17.2320   18.4730 H   0  0  0  0  0  0  0  0  0  0  0  0
    1.2840   15.6890   21.7530 H   0  0  0  0  0  0  0  0  0  0  0  0
   -1.7050   15.5830   19.8220 H   0  0  0  0  0  0  0  0  0  0  0  0
   -0.6710   16.4230   18.0400 H   0  0  0  0  0  0  0  0  0  0  0  0
    0.4950   17.1460   16.1930 H   0  0  0  0  0  0  0  0  0  0  0  0
    2.1510   20.6600   17.3170 H   0  0  0  0  0  0  0  0  0  0  0  0
    2.1910   19.3640   18.3760 H   0  0  0  0  0  0  0  0  0  0  0  0
    3.6050   14.8240   14.5680 H   0  0  0  0  0  0  0  0  0  0  0  0
    0.5130   19.1320   13.3860 H   0  0  0  0  0  0  0  0  0  0  0  0
    3.7580   14.5720   12.1530 H   0  0  0  0  0  0  0  0  0  0  0  0
    4.3370   20.4880   19.1580 H   0  0  0  0  0  0  0  0  0  0  0  0
    5.5040   19.3800   18.6680 H   0  0  0  0  0  0  0  0  0  0  0  0
    1.4510   18.1010   11.6430 H   0  0  0  0  0  0  0  0  0  0  0  0
    2.1970   15.3860    9.8650 H   0  0  0  0  0  0  0  0  0  0  0  0
    2.4360   17.0840    9.7230 H   0  0  0  0  0  0  0  0  0  0  0  0
    1.2230   24.1060   15.4130 H   0  0  0  0  0  0  0  0  0  0  0  0
    3.5890   22.4470   19.3750 H   0  0  0  0  0  0  0  0  0  0  0  0
   -0.6280   23.6000   18.4150 H   0  0  0  0  0  0  0  0  0  0  0  0
    5.1860   25.1910   15.8450 H   0  0  0  0  0  0  0  0  0  0  0  0
    5.8960   24.3580   14.4490 H   0  0  0  0  0  0  0  0  0  0  0  0
    1.2280   23.0010   19.5130 H   0  0  0  0  0  0  0  0  0  0  0  0
    4.0000   22.8100   14.3410 H   0  0  0  0  0  0  0  0  0  0  0  0
    3.3930   24.4790   14.3400 H   0  0  0  0  0  0  0  0  0  0  0  0
    7.9320   23.7660   15.7130 H   0  0  0  0  0  0  0  0  0  0  0  0
    8.9370   20.5500   18.8650 H   0  0  0  0  0  0  0  0  0  0  0  0
    7.4360   20.0490   19.6150 H   0  0  0  0  0  0  0  0  0  0  0  0
    7.9780   19.2910   18.1030 H   0  0  0  0  0  0  0  0  0  0  0  0
    9.0020   22.1210   17.1520 H   0  0  0  0  0  0  0  0  0  0  0  0
  1  2  2  0  0  0  0
  1  3  1  0  0  0  0
  1 44  1  0  0  0  0
  2  6  1  0  0  0  0
  2 45  1  0  0  0  0
  3  4  2  0  0  0  0
  3 46  1  0  0  0  0
  4  5  1  0  0  0  0
  4  7  1  0  0  0  0
  5 47  1  0  0  0  0
  6  7  2  0  0  0  0
  6  8  1  0  0  0  0
  7 48  1  0  0  0  0
  8  9  1  0  0  0  0
  8 13  1  0  0  0  0
  8 49  1  0  0  0  0
  9 10  1  0  0  0  0
  9 11  1  0  0  0  0
 10 17  1  0  0  0  0
 10 50  1  0  0  0  0
 10 51  1  0  0  0  0
 11 12  2  0  0  0  0
 11 18  1  0  0  0  0
 13 14  1  0  0  0  0
 14 15  2  0  0  0  0
 14 16  1  0  0  0  0
 15 19  1  0  0  0  0
 15 52  1  0  0  0  0
 16 18  1  0  0  0  0
 16 22  2  0  0  0  0
 17 21  1  0  0  0  0
 17 24  2  0  0  0  0
 18 53  1  0  0  0  0
 19 20  2  0  0  0  0
 19 54  1  0  0  0  0
 20 22  1  0  0  0  0
 20 23  1  0  0  0  0
 21 25  1  0  0  0  0
 21 55  1  0  0  0  0
 21 56  1  0  0  0  0
 22 57  1  0  0  0  0
 23 26  1  0  0  0  0
 23 58  1  0  0  0  0
 23 59  1  0  0  0  0
 25 27  1  0  0  0  0
 25 29  2  0  0  0  0
 26 28  2  0  0  0  0
 26 30  1  0  0  0  0
 27 31  1  0  0  0  0
 27 33  2  0  0  0  0
 29 42  1  0  0  0  0
 29 43  1  0  0  0  0
 31 32  1  0  0  0  0
 31 36  2  0  0  0  0
 32 34  2  0  0  0  0
 32 40  1  0  0  0  0
 33 38  1  0  0  0  0
 33 41  1  0  0  0  0
 34 35  1  0  0  0  0
 34 60  1  0  0  0  0
 35 37  1  0  0  0  0
 35 39  2  0  0  0  0
 36 39  1  0  0  0  0
 36 61  1  0  0  0  0
 37 62  1  0  0  0  0
 38 40  1  0  0  0  0
 38 63  1  0  0  0  0
 38 64  1  0  0  0  0
 39 65  1  0  0  0  0
 40 66  1  0  0  0  0
 40 67  1  0  0  0  0
 41 43  2  0  0  0  0
 41 68  1  0  0  0  0
 42 69  1  0  0  0  0
 42 70  1  0  0  0  0
 42 71  1  0  0  0  0
 43 72  1  0  0  0  0
M  CHG  1  30  -1
M  END
> <rseq>
1

> <mseq>
530

> <S>
-6.990919

> <rmsd_refine>
1.403034

> <E_conf>
-177.2947

> <E_score1>
-12.93004

> <E_refine>
-43.20652

> <E_score2>
-6.990919

>  <$File>
outputs/pdb_4j58_cleaned.pdb_2024_06_17__22_47_40_V2_BS398_MIN1_/SDF/sdf_db.sdf

> <Rec_index>
1

>  <PLIF_raw>
[[30,30,30],[823,823,829],[54,54,54],[2,7,7],[4.4,4.891685718,1.649332253]]

> <FP:PLIF>
6 19 1 16

>  <PLIF_ligidx>
[30,30,[30,30],30]

$$$$
530
  MOE2022           3D

 73 78  0  0  1  0  0  0  0  0999 V2000
    1.5480   16.0140   19.3920 C   0  0  0  0  0  0  0  0  0  0  0  0
    2.0180   16.5270   18.1840 C   0  0  0  0  0  0  0  0  0  0  0  0
    0.1850   15.8250   19.5860 C   0  0  0  0  0  0  0  0  0  0  0  0
   -0.6950   16.1580   18.5600 C   0  0  0  0  0  0  0  0  0  0  0  0
   -2.0350   15.9650   18.7310 O   0  0  0  0  0  0  0  0  0  0  0  0
    1.1290   16.8750   17.1620 C   0  0  0  0  0  0  0  0  0  0  0  0
   -0.2380   16.6880   17.3570 C   0  0  0  0  0  0  0  0  0  0  0  0
    1.6300   17.4230   15.8330 C   0  0  1  0  0  0  0  0  0  0  0  0
    2.0750   18.8220   15.8390 N   0  0  0  0  0  0  0  0  0  0  0  0
    2.5800   19.4930   17.0700 C   0  0  0  0  0  0  0  0  0  0  0  0
    2.2460   19.5030   14.6440 C   0  0  0  0  0  0  0  0  0  0  0  0
    2.3020   20.7320   14.6260 O   0  0  0  0  0  0  0  0  0  0  0  0
    2.6490   16.5740   15.3160 O   0  0  0  0  0  0  0  0  0  0  0  0
    2.8250   16.4500   13.9640 C   0  0  0  0  0  0  0  0  0  0  0  0
    3.1190   15.1780   13.4880 C   0  0  0  0  0  0  0  0  0  0  0  0
    2.7450   17.5320   13.0740 C   0  0  0  0  0  0  0  0  0  0  0  0
    4.0970   19.4950   17.1990 C   0  0  0  0  0  0  0  0  0  0  0  0
    2.3630   18.8590   13.4230 N   0  0  0  0  0  0  0  0  0  0  0  0
    3.4150   14.9870   12.1420 C   0  0  0  0  0  0  0  0  0  0  0  0
    3.4170   16.0670   11.2610 C   0  0  0  0  0  0  0  0  0  0  0  0
    4.8170   20.1930   18.3400 C   0  0  0  0  0  0  0  0  0  0  0  0
    3.0620   17.3340   11.7260 C   0  0  0  0  0  0  0  0  0  0  0  0
    3.8150   15.8490    9.8110 C   0  0  0  0  0  0  0  0  0  0  0  0
    4.7510   18.9170   16.3810 O   0  0  0  0  0  0  0  0  0  0  0  0
    5.7310   21.3330   17.8740 C   0  0  0  0  0  0  0  0  0  0  0  0
    5.2300   15.3310    9.6270 C   0  0  0  0  0  0  0  0  0  0  0  0
    5.1920   22.4370   17.1700 C   0  0  0  0  0  0  0  0  0  0  0  0
    5.3840   14.2540    9.0110 O   0  0  0  0  0  0  0  0  0  0  0  0
    7.1230   21.2410   18.0410 C   0  0  0  0  0  0  0  0  0  0  0  0
    6.1670   16.0240   10.0820 O   0  5  0  0  0  0  0  0  0  0  0  0
    3.7710   22.8260   17.1990 C   0  0  0  0  0  0  0  0  0  0  0  0
    3.1920   23.3720   16.0410 C   0  0  0  0  0  0  0  0  0  0  0  0
    6.0530   23.2180   16.3810 C   0  0  0  0  0  0  0  0  0  0  0  0
    1.8370   23.6810   16.0010 C   0  0  0  0  0  0  0  0  0  0  0  0
    1.0670   23.5110   17.1480 C   0  0  0  0  0  0  0  0  0  0  0  0
    2.9910   22.7590   18.3660 C   0  0  0  0  0  0  0  0  0  0  0  0
   -0.2650   23.7920   17.1150 O   0  0  0  0  0  0  0  0  0  0  0  0
    5.4490   24.1870   15.3700 C   0  0  1  0  0  0  0  0  0  0  0  0
    1.6410   23.0790   18.3380 C   0  0  0  0  0  0  0  0  0  0  0  0
    6.3280   24.4140   14.2470 O   0  0  0  0  0  0  0  0  0  0  0  0
    4.0930   23.6680   14.8640 C   0  0  0  0  0  0  0  0  0  0  0  0
    7.4280   23.0830   16.5170 C   0  0  0  0  0  0  0  0  0  0  0  0
    7.7880   20.1840   18.9030 C   0  0  0  0  0  0  0  0  0  0  0  0
    7.9580   22.1320   17.3740 C   0  0  0  0  0  0  0  0  0  0  0  0
    2.2330   15.7640   20.1610 H   0  0  0  0  0  0  0  0  0  0  0  0
    3.0600   16.6520   18.0430 H   0  0  0  0  0  0  0  0  0  0  0  0
   -0.1780   15.4350   20.5000 H   0  0  0  0  0  0  0  0  0  0  0  0
   -2.2260   15.5940   19.6140 H   0  0  0  0  0  0  0  0  0  0  0  0
   -0.9300   16.9400   16.5940 H   0  0  0  0  0  0  0  0  0  0  0  0
    0.8030   17.3560   15.1370 H   0  0  0  0  0  0  0  0  0  0  0  0
    2.2240   20.5120   17.0910 H   0  0  0  0  0  0  0  0  0  0  0  0
    2.1380   19.0800   17.9630 H   0  0  0  0  0  0  0  0  0  0  0  0
    3.1250   14.3540   14.1470 H   0  0  0  0  0  0  0  0  0  0  0  0
    2.3120   19.5080   12.6240 H   0  0  0  0  0  0  0  0  0  0  0  0
    3.6580   14.0170   11.7890 H   0  0  0  0  0  0  0  0  0  0  0  0
    4.1190   20.5350   19.0750 H   0  0  0  0  0  0  0  0  0  0  0  0
    5.3630   19.4330   18.8750 H   0  0  0  0  0  0  0  0  0  0  0  0
    3.0400   18.1530   11.0550 H   0  0  0  0  0  0  0  0  0  0  0  0
    3.1170   15.1610    9.3550 H   0  0  0  0  0  0  0  0  0  0  0  0
    3.7110   16.7680    9.2520 H   0  0  0  0  0  0  0  0  0  0  0  0
    1.3970   24.0590   15.1150 H   0  0  0  0  0  0  0  0  0  0  0  0
    3.4290   22.4780   19.2860 H   0  0  0  0  0  0  0  0  0  0  0  0
   -0.5400   24.0580   16.2160 H   0  0  0  0  0  0  0  0  0  0  0  0
    5.3000   25.1450   15.8510 H   0  0  0  0  0  0  0  0  0  0  0  0
    1.0540   23.0040   19.2150 H   0  0  0  0  0  0  0  0  0  0  0  0
    7.1270   24.8790   14.5420 H   0  0  0  0  0  0  0  0  0  0  0  0
    4.2470   22.7520   14.2910 H   0  0  0  0  0  0  0  0  0  0  0  0
    3.6400   24.4200   14.2170 H   0  0  0  0  0  0  0  0  0  0  0  0
    8.0800   23.6990   15.9620 H   0  0  0  0  0  0  0  0  0  0  0  0
    7.7260   19.2130   18.4220 H   0  0  0  0  0  0  0  0  0  0  0  0
    8.8450   20.4060   19.0580 H   0  0  0  0  0  0  0  0  0  0  0  0
    7.3200   20.1280   19.8860 H   0  0  0  0  0  0  0  0  0  0  0  0
    9.0100   22.0650   17.4870 H   0  0  0  0  0  0  0  0  0  0  0  0
  1  2  2  0  0  0  0
  1  3  1  0  0  0  0
  1 45  1  0  0  0  0
  2  6  1  0  0  0  0
  2 46  1  0  0  0  0
  3  4  2  0  0  0  0
  3 47  1  0  0  0  0
  4  5  1  0  0  0  0
  4  7  1  0  0  0  0
  5 48  1  0  0  0  0
  6  7  2  0  0  0  0
  6  8  1  0  0  0  0
  7 49  1  0  0  0  0
  8  9  1  0  0  0  0
  8 13  1  0  0  0  0
  8 50  1  0  0  0  0
  9 10  1  0  0  0  0
  9 11  1  0  0  0  0
 10 17  1  0  0  0  0
 10 51  1  0  0  0  0
 10 52  1  0  0  0  0
 11 12  2  0  0  0  0
 11 18  1  0  0  0  0
 13 14  1  0  0  0  0
 14 15  2  0  0  0  0
 14 16  1  0  0  0  0
 15 19  1  0  0  0  0
 15 53  1  0  0  0  0
 16 18  1  0  0  0  0
 16 22  2  0  0  0  0
 17 21  1  0  0  0  0
 17 24  2  0  0  0  0
 18 54  1  0  0  0  0
 19 20  2  0  0  0  0
 19 55  1  0  0  0  0
 20 22  1  0  0  0  0
 20 23  1  0  0  0  0
 21 25  1  0  0  0  0
 21 56  1  0  0  0  0
 21 57  1  0  0  0  0
 22 58  1  0  0  0  0
 23 26  1  0  0  0  0
 23 59  1  0  0  0  0
 23 60  1  0  0  0  0
 25 27  2  0  0  0  0
 25 29  1  0  0  0  0
 26 28  2  0  0  0  0
 26 30  1  0  0  0  0
 27 31  1  0  0  0  0
 27 33  1  0  0  0  0
 29 43  1  0  0  0  0
 29 44  2  0  0  0  0
 31 32  1  0  0  0  0
 31 36  2  0  0  0  0
 32 34  2  0  0  0  0
 32 41  1  0  0  0  0
 33 38  1  0  0  0  0
 33 42  2  0  0  0  0
 34 35  1  0  0  0  0
 34 61  1  0  0  0  0
 35 37  1  0  0  0  0
 35 39  2  0  0  0  0
 36 39  1  0  0  0  0
 36 62  1  0  0  0  0
 37 63  1  0  0  0  0
 38 40  1  0  0  0  0
 38 41  1  0  0  0  0
 38 64  1  0  0  0  0
 39 65  1  0  0  0  0
 40 66  1  0  0  0  0
 41 67  1  0  0  0  0
 41 68  1  0  0  0  0
 42 44  1  0  0  0  0
 42 69  1  0  0  0  0
 43 70  1  0  0  0  0
 43 71  1  0  0  0  0
 43 72  1  0  0  0  0
 44 73  1  0  0  0  0
M  CHG  1  30  -1
M  END
> <rseq>
1

> <mseq>
531

> <S>
-6.914275

> <rmsd_refine>
1.487548

> <E_conf>
-178.8215

> <E_score1>
-13.15137

> <E_refine>
-41.19896

> <E_score2>
-6.914275

>  <$File>
outputs/pdb_4j58_cleaned.pdb_2024_06_17__22_47_40_V2_BS398_MIN1_/SDF/sdf_db.sdf

> <Rec_index>
1

>  <PLIF_raw>
[[21,30,30,30],[1504,823,823,829],[101,54,54,54],[3,2,7,7],[0.5,6.8,5.037620941,0.6897431969]]

> <FP:PLIF>
6 19 1 16 8

>  <PLIF_ligidx>
[30,30,[30,30],30,21]

$$$$
490
  MOE2022           3D

 68 71  0  0  1  0  0  0  0  0999 V2000
    2.2340   16.3690   18.9540 O   0  0  0  0  0  0  0  0  0  0  0  0
    1.2950   16.6320   18.2060 C   0  0  0  0  0  0  0  0  0  0  0  0
    1.5110   17.4820   17.1500 N   0  0  0  0  0  0  0  0  0  0  0  0
   -0.0430   16.0550   18.3600 C   0  0  0  0  0  0  0  0  0  0  0  0
   -1.1700   16.6450   17.7650 C   0  0  0  0  0  0  0  0  0  0  0  0
   -2.4250   16.0640   17.8950 C   0  0  0  0  0  0  0  0  0  0  0  0
   -0.2160   14.8730   19.0940 C   0  0  0  0  0  0  0  0  0  0  0  0
    2.8290   17.8880   16.6680 C   0  0  1  0  0  0  0  0  0  0  0  0
   -1.4720   14.2900   19.2140 C   0  0  0  0  0  0  0  0  0  0  0  0
   -2.5780   14.8850   18.6160 C   0  0  0  0  0  0  0  0  0  0  0  0
    2.8690   17.9030   15.1370 C   0  0  0  0  0  0  0  0  0  0  0  0
    2.4540   16.7840   14.3950 C   0  0  0  0  0  0  0  0  0  0  0  0
    2.0630   15.6260   15.0110 O   0  0  0  0  0  0  0  0  0  0  0  0
    2.4320   16.7940   13.0050 C   0  0  0  0  0  0  0  0  0  0  0  0
    2.8730   17.9280   12.3370 C   0  0  0  0  0  0  0  0  0  0  0  0
    3.2440   19.2190   17.3240 C   0  0  0  0  0  0  0  0  0  0  0  0
    2.8350   17.9450   10.9590 O   0  0  0  0  0  0  0  0  0  0  0  0
    3.3310   19.0410   13.0400 C   0  0  0  0  0  0  0  0  0  0  0  0
    4.3910   19.9200   16.5820 C   0  0  1  0  0  0  0  0  0  0  0  0
    3.3370   19.0280   14.4380 C   0  0  0  0  0  0  0  0  0  0  0  0
    4.0210   17.7080   10.1450 C   0  0  0  0  0  0  0  0  0  0  0  0
    3.8430   20.2510   15.1830 C   0  0  0  0  0  0  0  0  0  0  0  0
    4.4750   16.2540   10.1250 C   0  0  0  0  0  0  0  0  0  0  0  0
    4.9020   21.1910   17.3000 C   0  0  0  0  0  0  0  0  0  0  0  0
    4.3750   15.5450   11.1130 O   0  0  0  0  0  0  0  0  0  0  0  0
    5.0500   15.7130    8.9890 N   0  0  0  0  0  0  0  0  0  0  0  0
    5.2840   16.5250    7.8740 O   0  0  0  0  0  0  0  0  0  0  0  0
    6.1390   20.9780   18.2030 C   0  0  0  0  0  0  0  0  0  0  0  0
    6.6370   22.3370   18.7200 C   0  0  0  0  0  0  0  0  0  0  0  0
    5.8770   20.0520   19.3990 C   0  0  0  0  0  0  0  0  0  0  0  0
    5.4130   14.3420    8.8720 C   0  0  0  0  0  0  0  0  0  0  0  0
    4.8370   13.5230    7.8950 C   0  0  0  0  0  0  0  0  0  0  0  0
    6.3240   13.7900    9.7770 C   0  0  0  0  0  0  0  0  0  0  0  0
    3.9690   14.0400    6.9960 F   0  0  0  0  0  0  0  0  0  0  0  0
    6.6120   12.4280    9.7180 C   0  0  0  0  0  0  0  0  0  0  0  0
    6.0100   11.6160    8.7550 C   0  0  0  0  0  0  0  0  0  0  0  0
    5.1230   12.1660    7.8300 C   0  0  0  0  0  0  0  0  0  0  0  0
    0.7140   17.7130   16.5380 H   0  0  0  0  0  0  0  0  0  0  0  0
   -1.0770   17.5440   17.2130 H   0  0  0  0  0  0  0  0  0  0  0  0
   -3.2690   16.5190   17.4420 H   0  0  0  0  0  0  0  0  0  0  0  0
    0.6210   14.4100   19.5500 H   0  0  0  0  0  0  0  0  0  0  0  0
    3.5500   17.1430   16.9710 H   0  0  0  0  0  0  0  0  0  0  0  0
   -1.5930   13.3870   19.7540 H   0  0  0  0  0  0  0  0  0  0  0  0
   -3.5350   14.4390   18.7080 H   0  0  0  0  0  0  0  0  0  0  0  0
    2.0710   15.7240   15.9840 H   0  0  0  0  0  0  0  0  0  0  0  0
    2.0890   15.9490   12.4660 H   0  0  0  0  0  0  0  0  0  0  0  0
    2.3800   19.8860   17.3480 H   0  0  0  0  0  0  0  0  0  0  0  0
    3.5240   19.0100   18.3550 H   0  0  0  0  0  0  0  0  0  0  0  0
    3.6660   19.8950   12.5100 H   0  0  0  0  0  0  0  0  0  0  0  0
    5.2200   19.2230   16.4680 H   0  0  0  0  0  0  0  0  0  0  0  0
    3.8050   18.0530    9.1430 H   0  0  0  0  0  0  0  0  0  0  0  0
    4.8220   18.3430   10.4920 H   0  0  0  0  0  0  0  0  0  0  0  0
    3.0240   20.9670   15.2710 H   0  0  0  0  0  0  0  0  0  0  0  0
    4.6340   20.7180   14.5950 H   0  0  0  0  0  0  0  0  0  0  0  0
    5.1860   21.9220   16.5410 H   0  0  0  0  0  0  0  0  0  0  0  0
    4.0910   21.6320   17.8830 H   0  0  0  0  0  0  0  0  0  0  0  0
    5.5050   15.9230    7.1340 H   0  0  0  0  0  0  0  0  0  0  0  0
    6.9380   20.5370   17.6020 H   0  0  0  0  0  0  0  0  0  0  0  0
    7.5200   22.1980   19.3460 H   0  0  0  0  0  0  0  0  0  0  0  0
    6.9080   22.9770   17.8800 H   0  0  0  0  0  0  0  0  0  0  0  0
    5.8560   22.8250   19.3020 H   0  0  0  0  0  0  0  0  0  0  0  0
    6.7580   20.0130   20.0400 H   0  0  0  0  0  0  0  0  0  0  0  0
    5.0260   20.4140   19.9760 H   0  0  0  0  0  0  0  0  0  0  0  0
    5.6730   19.0440   19.0460 H   0  0  0  0  0  0  0  0  0  0  0  0
    6.7830   14.4000   10.5090 H   0  0  0  0  0  0  0  0  0  0  0  0
    7.2910   12.0040   10.4130 H   0  0  0  0  0  0  0  0  0  0  0  0
    6.2320   10.5800    8.7250 H   0  0  0  0  0  0  0  0  0  0  0  0
    4.6700   11.5560    7.0920 H   0  0  0  0  0  0  0  0  0  0  0  0
  1  2  2  0  0  0  0
  2  3  1  0  0  0  0
  2  4  1  0  0  0  0
  3  8  1  0  0  0  0
  3 38  1  0  0  0  0
  4  5  2  0  0  0  0
  4  7  1  0  0  0  0
  5  6  1  0  0  0  0
  5 39  1  0  0  0  0
  6 10  2  0  0  0  0
  6 40  1  0  0  0  0
  7  9  2  0  0  0  0
  7 41  1  0  0  0  0
  8 11  1  0  0  0  0
  8 16  1  0  0  0  0
  8 42  1  0  0  0  0
  9 10  1  0  0  0  0
  9 43  1  0  0  0  0
 10 44  1  0  0  0  0
 11 12  1  0  0  0  0
 11 20  2  0  0  0  0
 12 13  1  0  0  0  0
 12 14  2  0  0  0  0
 13 45  1  0  0  0  0
 14 15  1  0  0  0  0
 14 46  1  0  0  0  0
 15 17  1  0  0  0  0
 15 18  2  0  0  0  0
 16 19  1  0  0  0  0
 16 47  1  0  0  0  0
 16 48  1  0  0  0  0
 17 21  1  0  0  0  0
 18 20  1  0  0  0  0
 18 49  1  0  0  0  0
 19 22  1  0  0  0  0
 19 24  1  0  0  0  0
 19 50  1  0  0  0  0
 20 22  1  0  0  0  0
 21 23  1  0  0  0  0
 21 51  1  0  0  0  0
 21 52  1  0  0  0  0
 22 53  1  0  0  0  0
 22 54  1  0  0  0  0
 23 25  2  0  0  0  0
 23 26  1  0  0  0  0
 24 28  1  0  0  0  0
 24 55  1  0  0  0  0
 24 56  1  0  0  0  0
 26 27  1  0  0  0  0
 26 31  1  0  0  0  0
 27 57  1  0  0  0  0
 28 29  1  0  0  0  0
 28 30  1  0  0  0  0
 28 58  1  0  0  0  0
 29 59  1  0  0  0  0
 29 60  1  0  0  0  0
 29 61  1  0  0  0  0
 30 62  1  0  0  0  0
 30 63  1  0  0  0  0
 30 64  1  0  0  0  0
 31 32  2  0  0  0  0
 31 33  1  0  0  0  0
 32 34  1  0  0  0  0
 32 37  1  0  0  0  0
 33 35  2  0  0  0  0
 33 65  1  0  0  0  0
 35 36  1  0  0  0  0
 35 66  1  0  0  0  0
 36 37  2  0  0  0  0
 36 67  1  0  0  0  0
 37 68  1  0  0  0  0
M  END
> <rseq>
1

> <mseq>
491

> <S>
-7.228769

> <rmsd_refine>
1.880723

> <E_conf>
20.70926

> <E_score1>
-12.81697

> <E_refine>
-38.32644

> <E_score2>
-7.228769

>  <$File>
outputs/pdb_4j58_cleaned.pdb_2024_06_17__22_47_40_V2_BS398_MIN1_/SDF/sdf_db.sdf

> <Rec_index>
1

>  <PLIF_raw>
[[],[],[],[],[]]

>  <PLIF_ligidx>
[]

$$$$
491
  MOE2022           3D

 63 65  0  0  1  0  0  0  0  0999 V2000
    2.9440   12.5010   10.3600 C   0  0  0  0  0  0  0  0  0  0  0  0
    2.2360   13.0850   11.4040 C   0  0  0  0  0  0  0  0  0  0  0  0
    2.6600   14.3100   11.9430 C   0  0  0  0  0  0  0  0  0  0  0  0
    2.4880   11.3140    9.8440 O   0  0  0  0  0  0  0  0  0  0  0  0
    3.7930   14.9380   11.3930 C   0  0  0  0  0  0  0  0  0  0  0  0
    1.9240   14.9180   13.0480 C   0  0  0  0  0  0  0  0  0  0  0  0
    2.6180   15.7370   13.9130 N   0  0  0  0  0  0  0  0  0  0  0  0
    0.7290   14.7180   13.2570 O   0  0  0  0  0  0  0  0  0  0  0  0
    4.0890   13.1210    9.8470 C   0  0  0  0  0  0  0  0  0  0  0  0
    2.0370   16.4850   14.9990 C   0  0  0  0  0  0  0  0  0  0  0  0
    2.5780   16.2590   16.3070 C   0  0  0  0  0  0  0  0  0  0  0  0
    1.0560   17.4120   14.7930 C   0  0  0  0  0  0  0  0  0  0  0  0
    3.6090   15.6120   16.5120 O   0  0  0  0  0  0  0  0  0  0  0  0
    0.5810   17.7500   13.5620 O   0  0  0  0  0  0  0  0  0  0  0  0
    0.5080   18.1150   15.8750 N   0  0  0  0  0  0  0  0  0  0  0  0
    4.8170   12.5500    8.8380 O   0  0  0  0  0  0  0  0  0  0  0  0
    1.9130   16.8480   17.3970 N   0  0  0  0  0  0  0  0  0  0  0  0
   -0.3470   19.3140   15.6860 C   0  0  0  0  0  0  0  0  0  0  0  0
    4.5100   14.3440   10.3590 C   0  0  0  0  0  0  0  0  0  0  0  0
    0.8940   17.7880   17.1870 C   0  0  0  0  0  0  0  0  0  0  0  0
    0.4410   20.6190   15.4390 C   0  0  0  0  0  0  0  0  0  0  0  0
    0.3800   18.3550   18.1440 O   0  0  0  0  0  0  0  0  0  0  0  0
    2.3520   16.6050   18.8060 C   0  0  0  0  0  0  0  0  0  0  0  0
    1.6140   20.8460   16.4100 C   0  0  0  0  0  0  0  0  0  0  0  0
    2.2590   22.2300   16.2510 C   0  0  0  0  0  0  0  0  0  0  0  0
    3.7180   22.2540   16.7400 C   0  0  0  0  0  0  0  0  0  0  0  0
    3.9480   21.8800   18.2210 C   0  0  2  0  0  0  0  0  0  0  0  0
    3.4770   22.9230   19.0970 O   0  0  0  0  0  0  0  0  0  0  0  0
    1.3340   15.9970   19.7660 C   0  0  0  0  0  0  0  0  0  0  0  0
    0.8350   14.8800   19.5080 O   0  5  0  0  0  0  0  0  0  0  0  0
    5.4070   21.5710   18.5110 C   0  0  0  0  0  0  0  0  0  0  0  0
    1.0600   16.6420   20.8020 O   0  0  0  0  0  0  0  0  0  0  0  0
    5.7670   20.3320   19.0420 C   0  0  0  0  0  0  0  0  0  0  0  0
    6.4040   22.5040   18.2210 C   0  0  0  0  0  0  0  0  0  0  0  0
    7.7430   22.1920   18.4330 C   0  0  0  0  0  0  0  0  0  0  0  0
    7.1070   20.0260   19.2630 C   0  0  0  0  0  0  0  0  0  0  0  0
    8.0950   20.9530   18.9520 C   0  0  0  0  0  0  0  0  0  0  0  0
    1.3770   12.6020   11.7910 H   0  0  0  0  0  0  0  0  0  0  0  0
    3.0050   11.0430    9.0630 H   0  0  0  0  0  0  0  0  0  0  0  0
    4.1060   15.8790   11.7600 H   0  0  0  0  0  0  0  0  0  0  0  0
    3.6450   15.7240   13.8310 H   0  0  0  0  0  0  0  0  0  0  0  0
   -0.1380   18.4050   13.6390 H   0  0  0  0  0  0  0  0  0  0  0  0
    4.4550   11.6800    8.5870 H   0  0  0  0  0  0  0  0  0  0  0  0
   -1.0460   19.1560   14.8760 H   0  0  0  0  0  0  0  0  0  0  0  0
   -0.9900   19.4550   16.5440 H   0  0  0  0  0  0  0  0  0  0  0  0
    5.3690   14.8210    9.9610 H   0  0  0  0  0  0  0  0  0  0  0  0
    0.8340   20.5950   14.4220 H   0  0  0  0  0  0  0  0  0  0  0  0
   -0.2570   21.4530   15.5170 H   0  0  0  0  0  0  0  0  0  0  0  0
    3.2140   15.9680   18.8050 H   0  0  0  0  0  0  0  0  0  0  0  0
    2.7080   17.5370   19.2230 H   0  0  0  0  0  0  0  0  0  0  0  0
    1.2590   20.7460   17.4370 H   0  0  0  0  0  0  0  0  0  0  0  0
    2.3670   20.0790   16.2240 H   0  0  0  0  0  0  0  0  0  0  0  0
    2.2600   22.5040   15.1950 H   0  0  0  0  0  0  0  0  0  0  0  0
    1.6710   22.9710   16.7950 H   0  0  0  0  0  0  0  0  0  0  0  0
    4.2860   21.5540   16.1260 H   0  0  0  0  0  0  0  0  0  0  0  0
    4.1230   23.2510   16.5640 H   0  0  0  0  0  0  0  0  0  0  0  0
    3.3670   20.9990   18.4520 H   0  0  0  0  0  0  0  0  0  0  0  0
    2.5070   22.9670   19.0590 H   0  0  0  0  0  0  0  0  0  0  0  0
    5.0220   19.6140   19.2710 H   0  0  0  0  0  0  0  0  0  0  0  0
    6.1460   23.4540   17.8280 H   0  0  0  0  0  0  0  0  0  0  0  0
    8.4940   22.8970   18.1920 H   0  0  0  0  0  0  0  0  0  0  0  0
    7.3760   19.0830   19.6620 H   0  0  0  0  0  0  0  0  0  0  0  0
    9.1160   20.7150   19.1080 H   0  0  0  0  0  0  0  0  0  0  0  0
  1  2  1  0  0  0  0
  1  4  1  0  0  0  0
  1  9  2  0  0  0  0
  2  3  2  0  0  0  0
  2 38  1  0  0  0  0
  3  5  1  0  0  0  0
  3  6  1  0  0  0  0
  4 39  1  0  0  0  0
  5 19  2  0  0  0  0
  5 40  1  0  0  0  0
  6  7  1  0  0  0  0
  6  8  2  0  0  0  0
  7 10  1  0  0  0  0
  7 41  1  0  0  0  0
  9 16  1  0  0  0  0
  9 19  1  0  0  0  0
 10 11  1  0  0  0  0
 10 12  2  0  0  0  0
 11 13  2  0  0  0  0
 11 17  1  0  0  0  0
 12 14  1  0  0  0  0
 12 15  1  0  0  0  0
 14 42  1  0  0  0  0
 15 18  1  0  0  0  0
 15 20  1  0  0  0  0
 16 43  1  0  0  0  0
 17 20  1  0  0  0  0
 17 23  1  0  0  0  0
 18 21  1  0  0  0  0
 18 44  1  0  0  0  0
 18 45  1  0  0  0  0
 19 46  1  0  0  0  0
 20 22  2  0  0  0  0
 21 24  1  0  0  0  0
 21 47  1  0  0  0  0
 21 48  1  0  0  0  0
 23 29  1  0  0  0  0
 23 49  1  0  0  0  0
 23 50  1  0  0  0  0
 24 25  1  0  0  0  0
 24 51  1  0  0  0  0
 24 52  1  0  0  0  0
 25 26  1  0  0  0  0
 25 53  1  0  0  0  0
 25 54  1  0  0  0  0
 26 27  1  0  0  0  0
 26 55  1  0  0  0  0
 26 56  1  0  0  0  0
 27 28  1  0  0  0  0
 27 31  1  0  0  0  0
 27 57  1  0  0  0  0
 28 58  1  0  0  0  0
 29 30  1  0  0  0  0
 29 32  2  0  0  0  0
 31 33  1  0  0  0  0
 31 34  2  0  0  0  0
 33 36  2  0  0  0  0
 33 59  1  0  0  0  0
 34 35  1  0  0  0  0
 34 60  1  0  0  0  0
 35 37  2  0  0  0  0
 35 61  1  0  0  0  0
 36 37  1  0  0  0  0
 36 62  1  0  0  0  0
 37 63  1  0  0  0  0
M  CHG  1  30  -1
M  END
> <rseq>
1

> <mseq>
492

> <S>
-6.925254

> <rmsd_refine>
1.916149

> <E_conf>
-132.9049

> <E_score1>
-12.17608

> <E_refine>
-41.29911

> <E_score2>
-6.925254

>  <$File>
outputs/pdb_4j58_cleaned.pdb_2024_06_17__22_47_40_V2_BS398_MIN1_/SDF/sdf_db.sdf

> <Rec_index>
1

>  <PLIF_raw>
[[23,13,30,30],[1617,954,1212,1212],[110,62,81,81],[1,2,2,7],[0.5,0.9,3.1,2.349822067]]

> <FP:PLIF>
20 17 18 24 26

>  <PLIF_ligidx>
[13,30,30,30,23]

$$$$
492
  MOE2022           3D

 61 64  0  0  1  0  0  0  0  0999 V2000
    2.2990   16.3600   20.7360 C   0  0  0  0  0  0  0  0  0  0  0  0
    0.9870   15.9910   20.9950 C   0  0  0  0  0  0  0  0  0  0  0  0
    2.6490   16.8410   19.4820 C   0  0  0  0  0  0  0  0  0  0  0  0
    0.0300   16.0730   19.9900 C   0  0  0  0  0  0  0  0  0  0  0  0
    0.3840   16.5460   18.7290 C   0  0  0  0  0  0  0  0  0  0  0  0
    1.6940   16.9450   18.4670 C   0  0  0  0  0  0  0  0  0  0  0  0
    2.0690   17.4630   17.0840 C   0  0  1  0  0  0  0  0  0  0  0  0
    3.0750   18.5270   17.1570 N   0  0  0  0  0  0  0  0  0  0  0  0
    2.5930   16.3480   16.1990 C   0  0  0  0  0  0  0  0  0  0  0  0
    2.8220   19.8130   17.5550 C   0  0  0  0  0  0  0  0  0  0  0  0
    2.0220   16.1890   14.9970 N   0  0  0  0  0  0  0  0  0  0  0  0
    1.6710   20.2330   17.4600 O   0  0  0  0  0  0  0  0  0  0  0  0
    3.9520   20.5920   18.0680 C   0  0  0  0  0  0  0  0  0  0  0  0
    3.5950   15.7130   16.5260 O   0  0  0  0  0  0  0  0  0  0  0  0
    2.6620   15.4250   13.9360 C   0  0  1  0  0  0  0  0  0  0  0  0
    1.7940   14.3640   13.2830 C   0  0  0  0  0  0  0  0  0  0  0  0
    3.0960   16.2680   12.7550 C   0  0  0  0  0  0  0  0  0  0  0  0
    5.0560   19.9330   18.6440 C   0  0  0  0  0  0  0  0  0  0  0  0
    2.3920   14.2300   11.8710 C   0  0  0  0  0  0  0  0  0  0  0  0
    3.9800   22.0030   18.0210 C   0  0  0  0  0  0  0  0  0  0  0  0
    3.4100   15.2910   11.7240 N   0  0  0  0  0  0  0  0  0  0  0  0
    6.1380   20.6580   19.1230 C   0  0  0  0  0  0  0  0  0  0  0  0
    2.9330   22.7070   17.5010 O   0  0  0  0  0  0  0  0  0  0  0  0
    4.1030   15.5430   10.5130 C   0  0  0  0  0  0  0  0  0  0  0  0
    6.1480   22.0520   19.0430 C   0  0  0  0  0  0  0  0  0  0  0  0
    7.2210   22.7490   19.5060 O   0  0  0  0  0  0  0  0  0  0  0  0
    7.2010   19.9910   19.6810 O   0  0  0  0  0  0  0  0  0  0  0  0
    5.0680   22.7350   18.4960 C   0  0  0  0  0  0  0  0  0  0  0  0
    4.0500   16.7900    9.8440 C   0  0  0  0  0  0  0  0  0  0  0  0
    3.2960   17.9330   10.3330 C   0  0  0  0  0  0  0  0  0  0  0  0
    4.9030   14.5150    9.9760 C   0  0  0  0  0  0  0  0  0  0  0  0
    5.0720   13.3270   10.6460 O   0  0  0  0  0  0  0  0  0  0  0  0
    4.7540   16.9360    8.6400 C   0  0  0  0  0  0  0  0  0  0  0  0
    5.5870   14.6820    8.7820 C   0  0  0  0  0  0  0  0  0  0  0  0
    2.0610   18.0110   10.1020 O   0  5  0  0  0  0  0  0  0  0  0  0
    5.5090   15.8980    8.1110 C   0  0  0  0  0  0  0  0  0  0  0  0
    3.9000   18.8270   10.9860 O   0  0  0  0  0  0  0  0  0  0  0  0
    3.0320   16.2780   21.4960 H   0  0  0  0  0  0  0  0  0  0  0  0
    0.7250   15.6560   21.9590 H   0  0  0  0  0  0  0  0  0  0  0  0
    3.6490   17.1260   19.3070 H   0  0  0  0  0  0  0  0  0  0  0  0
   -0.9700   15.7830   20.1840 H   0  0  0  0  0  0  0  0  0  0  0  0
   -0.3520   16.6060   17.9680 H   0  0  0  0  0  0  0  0  0  0  0  0
    1.1790   17.8720   16.6250 H   0  0  0  0  0  0  0  0  0  0  0  0
    4.0500   18.1990   17.2090 H   0  0  0  0  0  0  0  0  0  0  0  0
    1.2140   16.7420   14.7490 H   0  0  0  0  0  0  0  0  0  0  0  0
    3.5640   14.9320   14.2980 H   0  0  0  0  0  0  0  0  0  0  0  0
    1.8520   13.4250   13.8290 H   0  0  0  0  0  0  0  0  0  0  0  0
    0.7620   14.7080   13.2100 H   0  0  0  0  0  0  0  0  0  0  0  0
    2.2710   16.8950   12.4460 H   0  0  0  0  0  0  0  0  0  0  0  0
    3.9240   16.9140   12.9980 H   0  0  0  0  0  0  0  0  0  0  0  0
    5.0680   18.8790   18.7290 H   0  0  0  0  0  0  0  0  0  0  0  0
    2.8230   13.2480   11.7400 H   0  0  0  0  0  0  0  0  0  0  0  0
    1.6220   14.3420   11.1190 H   0  0  0  0  0  0  0  0  0  0  0  0
    2.1970   22.0990   17.2740 H   0  0  0  0  0  0  0  0  0  0  0  0
    7.9130   22.1230   19.8040 H   0  0  0  0  0  0  0  0  0  0  0  0
    7.0810   19.0240   19.6140 H   0  0  0  0  0  0  0  0  0  0  0  0
    5.0710   23.7930   18.4390 H   0  0  0  0  0  0  0  0  0  0  0  0
    4.6130   13.3820   11.5090 H   0  0  0  0  0  0  0  0  0  0  0  0
    4.7100   17.8600    8.1230 H   0  0  0  0  0  0  0  0  0  0  0  0
    6.1710   13.8910    8.3920 H   0  0  0  0  0  0  0  0  0  0  0  0
    6.0270   16.0360    7.1980 H   0  0  0  0  0  0  0  0  0  0  0  0
  1  2  2  0  0  0  0
  1  3  1  0  0  0  0
  1 38  1  0  0  0  0
  2  4  1  0  0  0  0
  2 39  1  0  0  0  0
  3  6  2  0  0  0  0
  3 40  1  0  0  0  0
  4  5  2  0  0  0  0
  4 41  1  0  0  0  0
  5  6  1  0  0  0  0
  5 42  1  0  0  0  0
  6  7  1  0  0  0  0
  7  8  1  0  0  0  0
  7  9  1  0  0  0  0
  7 43  1  0  0  0  0
  8 10  1  0  0  0  0
  8 44  1  0  0  0  0
  9 11  1  0  0  0  0
  9 14  2  0  0  0  0
 10 12  2  0  0  0  0
 10 13  1  0  0  0  0
 11 15  1  0  0  0  0
 11 45  1  0  0  0  0
 13 18  1  0  0  0  0
 13 20  2  0  0  0  0
 15 16  1  0  0  0  0
 15 17  1  0  0  0  0
 15 46  1  0  0  0  0
 16 19  1  0  0  0  0
 16 47  1  0  0  0  0
 16 48  1  0  0  0  0
 17 21  1  0  0  0  0
 17 49  1  0  0  0  0
 17 50  1  0  0  0  0
 18 22  2  0  0  0  0
 18 51  1  0  0  0  0
 19 21  1  0  0  0  0
 19 52  1  0  0  0  0
 19 53  1  0  0  0  0
 20 23  1  0  0  0  0
 20 28  1  0  0  0  0
 21 24  1  0  0  0  0
 22 25  1  0  0  0  0
 22 27  1  0  0  0  0
 23 54  1  0  0  0  0
 24 29  2  0  0  0  0
 24 31  1  0  0  0  0
 25 26  1  0  0  0  0
 25 28  2  0  0  0  0
 26 55  1  0  0  0  0
 27 56  1  0  0  0  0
 28 57  1  0  0  0  0
 29 30  1  0  0  0  0
 29 33  1  0  0  0  0
 30 35  1  0  0  0  0
 30 37  2  0  0  0  0
 31 32  1  0  0  0  0
 31 34  2  0  0  0  0
 32 58  1  0  0  0  0
 33 36  2  0  0  0  0
 33 59  1  0  0  0  0
 34 36  1  0  0  0  0
 34 60  1  0  0  0  0
 36 61  1  0  0  0  0
M  CHG  1  35  -1
M  END
> <rseq>
1

> <mseq>
493

> <S>
-7.85059

> <rmsd_refine>
1.082641

> <E_conf>
-59.85509

> <E_score1>
-11.22193

> <E_refine>
-42.89489

> <E_score2>
-7.85059

>  <$File>
outputs/pdb_4j58_cleaned.pdb_2024_06_17__22_47_40_V2_BS398_MIN1_/SDF/sdf_db.sdf

> <Rec_index>
1

>  <PLIF_raw>
[[32,14,37,37,1,3,6,5,4,2],[1056,954,823,829,1212,1212,1212,1212,1212,1212],[70,62,54,54,81,81,81,81,81,81],[3,2,7,7,10,10,10,10,10,10],[0.8,1.6,1.893246445,3.876931207,0.6,0.6,0.6,0.6,0.6,0.6]]

> <FP:PLIF>
1 16 20 23 3 27

>  <PLIF_ligidx>
[[37,37],37,14,14,32,[1,3,6,5,4,2]]

$$$$
493
  MOE2022           3D

 63 66  0  0  1  0  0  0  0  0999 V2000
    3.7410   17.9210   19.4870 O   0  0  0  0  0  0  0  0  0  0  0  0
    2.8180   17.5460   18.7570 C   0  0  0  0  0  0  0  0  0  0  0  0
    1.7020   16.7590   19.2110 C   0  0  0  0  0  0  0  0  0  0  0  0
    2.8550   17.8820   17.3990 N   0  0  0  0  0  0  0  0  0  0  0  0
    0.7280   16.4120   18.3240 C   0  0  0  0  0  0  0  0  0  0  0  0
    1.8660   17.3900   16.5300 C   0  0  0  0  0  0  0  0  0  0  0  0
    0.8390   16.7370   16.9940 N   0  0  0  0  0  0  0  0  0  0  0  0
    2.0590   17.5510   15.1000 C   0  0  0  0  0  0  0  0  0  0  0  0
    3.9680   18.7250   16.8620 C   0  0  0  0  0  0  0  0  0  0  0  0
    1.6420   16.3180   20.6660 C   0  0  0  0  0  0  0  0  0  0  0  0
   -0.4950   15.6030   18.7100 C   0  0  0  0  0  0  0  0  0  0  0  0
    3.6500   20.2250   16.6870 C   0  0  1  0  0  0  0  0  0  0  0  0
    3.9180   21.0450   17.9510 C   0  0  0  0  0  0  0  0  0  0  0  0
    1.4980   18.6220   14.3880 C   0  0  0  0  0  0  0  0  0  0  0  0
    4.5970   20.8790   15.6910 C   0  0  0  0  0  0  0  0  0  0  0  0
    1.6860   18.7340   13.0140 C   0  0  0  0  0  0  0  0  0  0  0  0
    2.4310   17.7650   12.3350 C   0  0  0  0  0  0  0  0  0  0  0  0
    4.5020   20.7090   14.4750 O   0  0  0  0  0  0  0  0  0  0  0  0
    2.8050   16.5960   14.3890 C   0  0  0  0  0  0  0  0  0  0  0  0
    5.2980   21.7120   17.7710 C   0  0  1  0  0  0  0  0  0  0  0  0
    5.5130   21.6340   16.3100 N   0  0  0  0  0  0  0  0  0  0  0  0
    6.6030   22.3260   15.6180 C   0  0  0  0  0  0  0  0  0  0  0  0
    5.2410   23.1900   18.2160 C   0  0  0  0  0  0  0  0  0  0  0  0
    2.5950   17.9110   10.9710 O   0  0  0  0  0  0  0  0  0  0  0  0
    3.3590   15.5410   15.0460 O   0  0  0  0  0  0  0  0  0  0  0  0
    3.0930   16.8990   10.1740 C   0  0  0  0  0  0  0  0  0  0  0  0
    6.3580   20.9410   18.5860 C   0  0  0  0  0  0  0  0  0  0  0  0
    4.2890   17.1180    9.4950 C   0  0  0  0  0  0  0  0  0  0  0  0
    2.9990   16.6900   13.0190 C   0  0  0  0  0  0  0  0  0  0  0  0
    7.1820   20.2170   17.9820 O   0  0  0  0  0  0  0  0  0  0  0  0
    2.4140   15.6830   10.0830 C   0  0  0  0  0  0  0  0  0  0  0  0
    4.8240   16.0760    8.7380 C   0  0  0  0  0  0  0  0  0  0  0  0
    6.3280   21.0550   19.8350 O   0  5  0  0  0  0  0  0  0  0  0  0
    2.9740   14.6640    9.3140 C   0  0  0  0  0  0  0  0  0  0  0  0
    2.3300   13.4650    9.2290 O   0  0  0  0  0  0  0  0  0  0  0  0
    6.0050   16.2600    8.0860 O   0  0  0  0  0  0  0  0  0  0  0  0
    4.1800   14.8430    8.6370 C   0  0  0  0  0  0  0  0  0  0  0  0
    4.8510   18.6470   17.4790 H   0  0  0  0  0  0  0  0  0  0  0  0
    4.3050   18.3280   15.9160 H   0  0  0  0  0  0  0  0  0  0  0  0
    0.8540   16.8330   21.1950 H   0  0  0  0  0  0  0  0  0  0  0  0
    1.4530   15.2570   20.7400 H   0  0  0  0  0  0  0  0  0  0  0  0
    2.5670   16.4990   21.1940 H   0  0  0  0  0  0  0  0  0  0  0  0
   -0.9120   15.9230   19.6540 H   0  0  0  0  0  0  0  0  0  0  0  0
   -1.2800   15.6930   17.9710 H   0  0  0  0  0  0  0  0  0  0  0  0
   -0.2520   14.5530   18.7940 H   0  0  0  0  0  0  0  0  0  0  0  0
    2.6170   20.3490   16.3630 H   0  0  0  0  0  0  0  0  0  0  0  0
    3.1380   21.8020   18.0460 H   0  0  0  0  0  0  0  0  0  0  0  0
    3.9150   20.4170   18.8350 H   0  0  0  0  0  0  0  0  0  0  0  0
    0.9240   19.3500   14.9010 H   0  0  0  0  0  0  0  0  0  0  0  0
    1.2640   19.5480   12.4820 H   0  0  0  0  0  0  0  0  0  0  0  0
    6.4210   23.3910   15.5670 H   0  0  0  0  0  0  0  0  0  0  0  0
    7.5460   22.1810   16.1290 H   0  0  0  0  0  0  0  0  0  0  0  0
    6.7310   21.9720   14.6040 H   0  0  0  0  0  0  0  0  0  0  0  0
    4.9070   23.2670   19.2500 H   0  0  0  0  0  0  0  0  0  0  0  0
    6.2260   23.6520   18.1440 H   0  0  0  0  0  0  0  0  0  0  0  0
    4.5480   23.7580   17.5930 H   0  0  0  0  0  0  0  0  0  0  0  0
    3.7370   14.8960   14.4170 H   0  0  0  0  0  0  0  0  0  0  0  0
    4.7790   18.0530    9.5620 H   0  0  0  0  0  0  0  0  0  0  0  0
    3.5710   15.9550   12.5150 H   0  0  0  0  0  0  0  0  0  0  0  0
    1.4970   15.5330   10.5930 H   0  0  0  0  0  0  0  0  0  0  0  0
    2.8250   12.8480    8.6560 H   0  0  0  0  0  0  0  0  0  0  0  0
    6.3350   17.1690    8.2280 H   0  0  0  0  0  0  0  0  0  0  0  0
    4.6000   14.0620    8.0580 H   0  0  0  0  0  0  0  0  0  0  0  0
  1  2  2  0  0  0  0
  2  3  1  0  0  0  0
  2  4  1  0  0  0  0
  3  5  2  0  0  0  0
  3 10  1  0  0  0  0
  4  6  1  0  0  0  0
  4  9  1  0  0  0  0
  5  7  1  0  0  0  0
  5 11  1  0  0  0  0
  6  7  2  0  0  0  0
  6  8  1  0  0  0  0
  8 14  1  0  0  0  0
  8 19  2  0  0  0  0
  9 12  1  0  0  0  0
  9 38  1  0  0  0  0
  9 39  1  0  0  0  0
 10 40  1  0  0  0  0
 10 41  1  0  0  0  0
 10 42  1  0  0  0  0
 11 43  1  0  0  0  0
 11 44  1  0  0  0  0
 11 45  1  0  0  0  0
 12 13  1  0  0  0  0
 12 15  1  0  0  0  0
 12 46  1  0  0  0  0
 13 20  1  0  0  0  0
 13 47  1  0  0  0  0
 13 48  1  0  0  0  0
 14 16  2  0  0  0  0
 14 49  1  0  0  0  0
 15 18  2  0  0  0  0
 15 21  1  0  0  0  0
 16 17  1  0  0  0  0
 16 50  1  0  0  0  0
 17 24  1  0  0  0  0
 17 29  2  0  0  0  0
 19 25  1  0  0  0  0
 19 29  1  0  0  0  0
 20 21  1  0  0  0  0
 20 23  1  0  0  0  0
 20 27  1  0  0  0  0
 21 22  1  0  0  0  0
 22 51  1  0  0  0  0
 22 52  1  0  0  0  0
 22 53  1  0  0  0  0
 23 54  1  0  0  0  0
 23 55  1  0  0  0  0
 23 56  1  0  0  0  0
 24 26  1  0  0  0  0
 25 57  1  0  0  0  0
 26 28  2  0  0  0  0
 26 31  1  0  0  0  0
 27 30  2  0  0  0  0
 27 33  1  0  0  0  0
 28 32  1  0  0  0  0
 28 58  1  0  0  0  0
 29 59  1  0  0  0  0
 31 34  2  0  0  0  0
 31 60  1  0  0  0  0
 32 36  1  0  0  0  0
 32 37  2  0  0  0  0
 34 35  1  0  0  0  0
 34 37  1  0  0  0  0
 35 61  1  0  0  0  0
 36 62  1  0  0  0  0
 37 63  1  0  0  0  0
M  CHG  1  33  -1
M  END
> <rseq>
1

> <mseq>
494

> <S>
-6.672096

> <rmsd_refine>
1.024902

> <E_conf>
-90.00043

> <E_score1>
-13.55143

> <E_refine>
-35.17953

> <E_score2>
-6.672096

>  <$File>
outputs/pdb_4j58_cleaned.pdb_2024_06_17__22_47_40_V2_BS398_MIN1_/SDF/sdf_db.sdf

> <Rec_index>
1

>  <PLIF_raw>
[[36,30,33,33],[2222,826,1866,1872],[148,54,125,125],[3,7,7,7],[0.7,0.5441188519,0.7816288335,1.191494296]]

> <FP:PLIF>
1 13 39

>  <PLIF_ligidx>
[30,[33,33],36]

$$$$
494
  MOE2022           3D

 61 64  0  0  1  0  0  0  0  0999 V2000
    2.3610   16.3010   20.8050 C   0  0  0  0  0  0  0  0  0  0  0  0
    1.0480   15.9320   21.0500 C   0  0  0  0  0  0  0  0  0  0  0  0
    2.7090   16.8440   19.5770 C   0  0  0  0  0  0  0  0  0  0  0  0
    0.0860   16.0740   20.0560 C   0  0  0  0  0  0  0  0  0  0  0  0
    0.4370   16.6110   18.8210 C   0  0  0  0  0  0  0  0  0  0  0  0
    1.7480   17.0150   18.5770 C   0  0  0  0  0  0  0  0  0  0  0  0
    2.1300   17.6260   17.2380 C   0  0  1  0  0  0  0  0  0  0  0  0
    3.0750   18.7360   17.4640 N   0  0  0  0  0  0  0  0  0  0  0  0
    2.6440   16.5570   16.2760 C   0  0  0  0  0  0  0  0  0  0  0  0
    3.9330   19.3020   16.5520 C   0  0  0  0  0  0  0  0  0  0  0  0
    2.1100   16.5400   15.0470 N   0  0  0  0  0  0  0  0  0  0  0  0
    3.7310   19.1090   15.3560 O   0  0  0  0  0  0  0  0  0  0  0  0
    5.0550   20.0880   17.0710 C   0  0  0  0  0  0  0  0  0  0  0  0
    3.5590   15.7970   16.5860 O   0  0  0  0  0  0  0  0  0  0  0  0
    2.6920   15.8000   13.9350 C   0  0  1  0  0  0  0  0  0  0  0  0
    1.8540   14.6260   13.4720 C   0  0  0  0  0  0  0  0  0  0  0  0
    2.8510   16.6420   12.6730 C   0  0  0  0  0  0  0  0  0  0  0  0
    5.5550   19.8310   18.3630 C   0  0  0  0  0  0  0  0  0  0  0  0
    2.3240   14.4200   12.0330 C   0  0  0  0  0  0  0  0  0  0  0  0
    5.6940   21.0890   16.3050 C   0  0  0  0  0  0  0  0  0  0  0  0
    2.7360   15.7370   11.5180 N   0  0  0  0  0  0  0  0  0  0  0  0
    6.6640   20.5210   18.8360 C   0  0  0  0  0  0  0  0  0  0  0  0
    5.2380   21.4230   15.0600 O   0  0  0  0  0  0  0  0  0  0  0  0
    3.4950   15.9440   10.3360 C   0  0  0  0  0  0  0  0  0  0  0  0
    7.3000   21.4780   18.0410 C   0  0  0  0  0  0  0  0  0  0  0  0
    8.4150   22.1180   18.4980 O   0  0  0  0  0  0  0  0  0  0  0  0
    7.1300   20.2470   20.0960 O   0  0  0  0  0  0  0  0  0  0  0  0
    6.8110   21.7780   16.7750 C   0  0  0  0  0  0  0  0  0  0  0  0
    3.6530   17.2420    9.7860 C   0  0  0  0  0  0  0  0  0  0  0  0
    4.0830   14.8370    9.6960 C   0  0  0  0  0  0  0  0  0  0  0  0
    3.0540   18.4350   10.3640 C   0  0  0  0  0  0  0  0  0  0  0  0
    4.4070   17.3640    8.6090 C   0  0  0  0  0  0  0  0  0  0  0  0
    1.8090   18.6160   10.2940 O   0  5  0  0  0  0  0  0  0  0  0  0
    3.8050   19.2940   10.9040 O   0  0  0  0  0  0  0  0  0  0  0  0
    4.5500   18.5920    8.0290 O   0  0  0  0  0  0  0  0  0  0  0  0
    5.0050   16.2710    7.9920 C   0  0  0  0  0  0  0  0  0  0  0  0
    4.8380   15.0060    8.5420 C   0  0  0  0  0  0  0  0  0  0  0  0
    3.0970   16.1720   21.5560 H   0  0  0  0  0  0  0  0  0  0  0  0
    0.7910   15.5490   21.9960 H   0  0  0  0  0  0  0  0  0  0  0  0
    3.7130   17.1280   19.4110 H   0  0  0  0  0  0  0  0  0  0  0  0
   -0.9150   15.7820   20.2400 H   0  0  0  0  0  0  0  0  0  0  0  0
   -0.3010   16.7190   18.0680 H   0  0  0  0  0  0  0  0  0  0  0  0
    1.2380   18.0620   16.8070 H   0  0  0  0  0  0  0  0  0  0  0  0
    3.1750   19.0190   18.4510 H   0  0  0  0  0  0  0  0  0  0  0  0
    1.3740   17.1920   14.8230 H   0  0  0  0  0  0  0  0  0  0  0  0
    3.6830   15.4260   14.1910 H   0  0  0  0  0  0  0  0  0  0  0  0
    2.0200   13.7400   14.0790 H   0  0  0  0  0  0  0  0  0  0  0  0
    0.7980   14.9000   13.4700 H   0  0  0  0  0  0  0  0  0  0  0  0
    2.0600   17.3790   12.6280 H   0  0  0  0  0  0  0  0  0  0  0  0
    3.7880   17.1780   12.6860 H   0  0  0  0  0  0  0  0  0  0  0  0
    5.1020   19.1000   18.9800 H   0  0  0  0  0  0  0  0  0  0  0  0
    3.1680   13.7460   12.0420 H   0  0  0  0  0  0  0  0  0  0  0  0
    1.5530   13.9760   11.4190 H   0  0  0  0  0  0  0  0  0  0  0  0
    4.4710   20.8630   14.8100 H   0  0  0  0  0  0  0  0  0  0  0  0
    8.6730   21.7520   19.3680 H   0  0  0  0  0  0  0  0  0  0  0  0
    6.6600   19.4800   20.4760 H   0  0  0  0  0  0  0  0  0  0  0  0
    7.2830   22.5150   16.1770 H   0  0  0  0  0  0  0  0  0  0  0  0
    3.9640   13.8610   10.0860 H   0  0  0  0  0  0  0  0  0  0  0  0
    4.1260   19.2710    8.5920 H   0  0  0  0  0  0  0  0  0  0  0  0
    5.5750   16.4000    7.1090 H   0  0  0  0  0  0  0  0  0  0  0  0
    5.2840   14.1670    8.0750 H   0  0  0  0  0  0  0  0  0  0  0  0
  1  2  2  0  0  0  0
  1  3  1  0  0  0  0
  1 38  1  0  0  0  0
  2  4  1  0  0  0  0
  2 39  1  0  0  0  0
  3  6  2  0  0  0  0
  3 40  1  0  0  0  0
  4  5  2  0  0  0  0
  4 41  1  0  0  0  0
  5  6  1  0  0  0  0
  5 42  1  0  0  0  0
  6  7  1  0  0  0  0
  7  8  1  0  0  0  0
  7  9  1  0  0  0  0
  7 43  1  0  0  0  0
  8 10  1  0  0  0  0
  8 44  1  0  0  0  0
  9 11  1  0  0  0  0
  9 14  2  0  0  0  0
 10 12  2  0  0  0  0
 10 13  1  0  0  0  0
 11 15  1  0  0  0  0
 11 45  1  0  0  0  0
 13 18  1  0  0  0  0
 13 20  2  0  0  0  0
 15 16  1  0  0  0  0
 15 17  1  0  0  0  0
 15 46  1  0  0  0  0
 16 19  1  0  0  0  0
 16 47  1  0  0  0  0
 16 48  1  0  0  0  0
 17 21  1  0  0  0  0
 17 49  1  0  0  0  0
 17 50  1  0  0  0  0
 18 22  2  0  0  0  0
 18 51  1  0  0  0  0
 19 21  1  0  0  0  0
 19 52  1  0  0  0  0
 19 53  1  0  0  0  0
 20 23  1  0  0  0  0
 20 28  1  0  0  0  0
 21 24  1  0  0  0  0
 22 25  1  0  0  0  0
 22 27  1  0  0  0  0
 23 54  1  0  0  0  0
 24 29  2  0  0  0  0
 24 30  1  0  0  0  0
 25 26  1  0  0  0  0
 25 28  2  0  0  0  0
 26 55  1  0  0  0  0
 27 56  1  0  0  0  0
 28 57  1  0  0  0  0
 29 31  1  0  0  0  0
 29 32  1  0  0  0  0
 30 37  2  0  0  0  0
 30 58  1  0  0  0  0
 31 33  1  0  0  0  0
 31 34  2  0  0  0  0
 32 35  1  0  0  0  0
 32 36  2  0  0  0  0
 35 59  1  0  0  0  0
 36 37  1  0  0  0  0
 36 60  1  0  0  0  0
 37 61  1  0  0  0  0
M  CHG  1  33  -1
M  END
> <rseq>
1

> <mseq>
495

> <S>
-7.558644

> <rmsd_refine>
1.400767

> <E_conf>
-97.77464

> <E_score1>
-11.42234

> <E_refine>
-42.21825

> <E_score2>
-7.558644

>  <$File>
outputs/pdb_4j58_cleaned.pdb_2024_06_17__22_47_40_V2_BS398_MIN1_/SDF/sdf_db.sdf

> <Rec_index>
1

>  <PLIF_raw>
[[14,34,34,26,26,26,26,26,26,1,3,6,5,4,2],[954,823,829,1651,1655,1659,1657,1653,1650,1212,1212,1212,1212,1212,1212],[62,54,54,112,112,112,112,112,112,81,81,81,81,81,81],[2,7,7,10,10,10,10,10,10,10,10,10,10,10,10],[1.7,0.8370123871,3.441400619,1.8,1.8,1.8,1.8,1.8,1.8,0.5,0.5,0.5,0.5,0.5,0.5]]

> <FP:PLIF>
1 20 23 27 15 47

>  <PLIF_ligidx>
[[34,34],14,14,[1,3,6,5,4,2],[26,26,26,26,26,26],[26,26,26,26,26,26]]

$$$$
495
  MOE2022           3D

 63 67  0  0  1  0  0  0  0  0999 V2000
    3.7160   17.9680   19.3380 O   0  0  0  0  0  0  0  0  0  0  0  0
    2.8150   17.6210   18.5650 C   0  0  0  0  0  0  0  0  0  0  0  0
    1.6680   16.8510   18.9650 C   0  0  0  0  0  0  0  0  0  0  0  0
    2.9140   17.9690   17.2110 N   0  0  0  0  0  0  0  0  0  0  0  0
    0.7340   16.5150   18.0310 C   0  0  0  0  0  0  0  0  0  0  0  0
    1.9650   17.4850   16.2920 C   0  0  0  0  0  0  0  0  0  0  0  0
    0.9140   16.8370   16.7070 N   0  0  0  0  0  0  0  0  0  0  0  0
    2.2190   17.6450   14.8690 C   0  0  0  0  0  0  0  0  0  0  0  0
    4.0570   18.8080   16.7380 C   0  0  0  0  0  0  0  0  0  0  0  0
    1.5310   16.4150   20.4160 C   0  0  0  0  0  0  0  0  0  0  0  0
   -0.5160   15.7220   18.3570 C   0  0  0  0  0  0  0  0  0  0  0  0
    3.7840   20.3240   16.6270 C   0  0  1  0  0  0  0  0  0  0  0  0
    4.0070   21.0800   17.9390 C   0  0  0  0  0  0  0  0  0  0  0  0
    1.8520   18.8100   14.1710 C   0  0  0  0  0  0  0  0  0  0  0  0
    4.8020   20.9980   15.7180 C   0  0  0  0  0  0  0  0  0  0  0  0
    2.1160   18.9410   12.8080 C   0  0  0  0  0  0  0  0  0  0  0  0
    2.7300   17.8930   12.1200 C   0  0  0  0  0  0  0  0  0  0  0  0
    4.7410   20.9360   14.4900 O   0  0  0  0  0  0  0  0  0  0  0  0
    2.8270   16.6000   14.1530 C   0  0  0  0  0  0  0  0  0  0  0  0
    5.4300   21.6770   17.8750 C   0  0  1  0  0  0  0  0  0  0  0  0
    5.7340   21.6460   16.4280 N   0  0  0  0  0  0  0  0  0  0  0  0
    6.8930   22.3140   15.8310 C   0  0  0  0  0  0  0  0  0  0  0  0
    5.4160   23.1400   18.3700 C   0  0  0  0  0  0  0  0  0  0  0  0
    3.0460   18.0460   10.7760 O   0  0  0  0  0  0  0  0  0  0  0  0
    3.1960   15.4500   14.7930 O   0  0  0  0  0  0  0  0  0  0  0  0
    3.6690   17.0080   10.1080 C   0  0  0  0  0  0  0  0  0  0  0  0
    6.3950   20.8260   18.7280 C   0  0  0  0  0  0  0  0  0  0  0  0
    4.4960   17.2630    9.0780 C   0  0  0  0  0  0  0  0  0  0  0  0
    3.3870   15.6240   10.6820 C   0  0  2  0  0  0  0  0  0  0  0  0
    3.0610   16.7100   12.7860 C   0  0  0  0  0  0  0  0  0  0  0  0
    3.6160   15.6460   12.0970 O   0  0  0  0  0  0  0  0  0  0  0  0
    7.2420   20.1060   18.1530 O   0  0  0  0  0  0  0  0  0  0  0  0
    6.2720   20.8810   19.9750 O   0  5  0  0  0  0  0  0  0  0  0  0
    4.1750   14.4910    9.9980 C   0  0  0  0  0  0  0  0  0  0  0  0
    5.3040   16.1590    8.4270 C   0  0  0  0  0  0  0  0  0  0  0  0
    5.4560   14.9950    9.3810 C   0  0  0  0  0  0  0  0  0  0  0  0
    6.5280   14.6280    9.7700 O   0  0  0  0  0  0  0  0  0  0  0  0
    4.9220   18.6760   17.3700 H   0  0  0  0  0  0  0  0  0  0  0  0
    4.4040   18.4460   15.7810 H   0  0  0  0  0  0  0  0  0  0  0  0
    0.7180   16.9330   20.9030 H   0  0  0  0  0  0  0  0  0  0  0  0
    1.3370   15.3540   20.4830 H   0  0  0  0  0  0  0  0  0  0  0  0
    2.4270   16.5970   20.9920 H   0  0  0  0  0  0  0  0  0  0  0  0
   -0.9840   16.0600   19.2700 H   0  0  0  0  0  0  0  0  0  0  0  0
   -1.2560   15.8040   17.5730 H   0  0  0  0  0  0  0  0  0  0  0  0
   -0.2880   14.6720   18.4750 H   0  0  0  0  0  0  0  0  0  0  0  0
    2.7740   20.4940   16.2590 H   0  0  0  0  0  0  0  0  0  0  0  0
    3.2660   21.8770   18.0070 H   0  0  0  0  0  0  0  0  0  0  0  0
    3.9010   20.4270   18.7970 H   0  0  0  0  0  0  0  0  0  0  0  0
    1.3690   19.5990   14.6870 H   0  0  0  0  0  0  0  0  0  0  0  0
    1.8540   19.8320   12.2970 H   0  0  0  0  0  0  0  0  0  0  0  0
    6.7390   23.3820   15.7680 H   0  0  0  0  0  0  0  0  0  0  0  0
    7.7860   22.1470   16.4180 H   0  0  0  0  0  0  0  0  0  0  0  0
    7.0970   21.9550   14.8320 H   0  0  0  0  0  0  0  0  0  0  0  0
    5.0000   23.1990   19.3740 H   0  0  0  0  0  0  0  0  0  0  0  0
    6.4280   23.5460   18.3940 H   0  0  0  0  0  0  0  0  0  0  0  0
    4.8090   23.7680   17.7160 H   0  0  0  0  0  0  0  0  0  0  0  0
    3.5390   14.8020   14.1460 H   0  0  0  0  0  0  0  0  0  0  0  0
    4.6420   18.2470    8.7120 H   0  0  0  0  0  0  0  0  0  0  0  0
    2.3320   15.4160   10.5560 H   0  0  0  0  0  0  0  0  0  0  0  0
    4.3590   13.6800   10.6910 H   0  0  0  0  0  0  0  0  0  0  0  0
    3.5590   14.0850    9.2080 H   0  0  0  0  0  0  0  0  0  0  0  0
    4.8050   15.8380    7.5240 H   0  0  0  0  0  0  0  0  0  0  0  0
    6.2750   16.5280    8.1280 H   0  0  0  0  0  0  0  0  0  0  0  0
  1  2  2  0  0  0  0
  2  3  1  0  0  0  0
  2  4  1  0  0  0  0
  3  5  2  0  0  0  0
  3 10  1  0  0  0  0
  4  6  1  0  0  0  0
  4  9  1  0  0  0  0
  5  7  1  0  0  0  0
  5 11  1  0  0  0  0
  6  7  2  0  0  0  0
  6  8  1  0  0  0  0
  8 14  1  0  0  0  0
  8 19  2  0  0  0  0
  9 12  1  0  0  0  0
  9 38  1  0  0  0  0
  9 39  1  0  0  0  0
 10 40  1  0  0  0  0
 10 41  1  0  0  0  0
 10 42  1  0  0  0  0
 11 43  1  0  0  0  0
 11 44  1  0  0  0  0
 11 45  1  0  0  0  0
 12 13  1  0  0  0  0
 12 15  1  0  0  0  0
 12 46  1  0  0  0  0
 13 20  1  0  0  0  0
 13 47  1  0  0  0  0
 13 48  1  0  0  0  0
 14 16  2  0  0  0  0
 14 49  1  0  0  0  0
 15 18  2  0  0  0  0
 15 21  1  0  0  0  0
 16 17  1  0  0  0  0
 16 50  1  0  0  0  0
 17 24  1  0  0  0  0
 17 30  2  0  0  0  0
 19 25  1  0  0  0  0
 19 30  1  0  0  0  0
 20 21  1  0  0  0  0
 20 23  1  0  0  0  0
 20 27  1  0  0  0  0
 21 22  1  0  0  0  0
 22 51  1  0  0  0  0
 22 52  1  0  0  0  0
 22 53  1  0  0  0  0
 23 54  1  0  0  0  0
 23 55  1  0  0  0  0
 23 56  1  0  0  0  0
 24 26  1  0  0  0  0
 25 57  1  0  0  0  0
 26 28  2  0  0  0  0
 26 29  1  0  0  0  0
 27 32  2  0  0  0  0
 27 33  1  0  0  0  0
 28 35  1  0  0  0  0
 28 58  1  0  0  0  0
 29 31  1  0  0  0  0
 29 34  1  0  0  0  0
 29 59  1  0  0  0  0
 30 31  1  0  0  0  0
 34 36  1  0  0  0  0
 34 60  1  0  0  0  0
 34 61  1  0  0  0  0
 35 36  1  0  0  0  0
 35 62  1  0  0  0  0
 35 63  1  0  0  0  0
 36 37  2  0  0  0  0
M  CHG  1  33  -1
M  END
> <rseq>
1

> <mseq>
496

> <S>
-7.166561

> <rmsd_refine>
1.110539

> <E_conf>
-44.02582

> <E_score1>
-13.86419

> <E_refine>
-40.69411

> <E_score2>
-7.166561

>  <$File>
outputs/pdb_4j58_cleaned.pdb_2024_06_17__22_47_40_V2_BS398_MIN1_/SDF/sdf_db.sdf

> <Rec_index>
1

>  <PLIF_raw>
[[33,33],[1866,1872],[125,125],[7,7],[0.9603097175,1.055381605]]

> <FP:PLIF>
13

>  <PLIF_ligidx>
[[33,33]]

$$$$
496
  MOE2022           3D

 63 66  0  0  1  0  0  0  0  0999 V2000
    7.3090   21.0550   19.4090 C   0  0  0  0  0  0  0  0  0  0  0  0
    6.4860   19.9690   19.1360 C   0  0  0  0  0  0  0  0  0  0  0  0
    5.1680   20.1900   18.7400 C   0  0  0  0  0  0  0  0  0  0  0  0
    4.4050   19.0860   18.3970 O   0  0  0  0  0  0  0  0  0  0  0  0
    3.2690   19.1150   17.4660 C   0  0  1  0  0  0  0  0  0  0  0  0
    4.6580   21.4890   18.6560 C   0  0  0  0  0  0  0  0  0  0  0  0
    6.8140   22.3520   19.3000 C   0  0  0  0  0  0  0  0  0  0  0  0
    5.4900   22.5680   18.9290 C   0  0  0  0  0  0  0  0  0  0  0  0
    3.7080   19.4620   16.0390 C   0  0  0  0  0  0  0  0  0  0  0  0
    4.5730   20.3200   15.8600 O   0  0  0  0  0  0  0  0  0  0  0  0
    2.4620   17.8060   17.5700 C   0  0  2  0  0  0  0  0  0  0  0  0
    3.0890   18.8890   14.9790 N   0  0  0  0  0  0  0  0  0  0  0  0
    1.3750   17.7320   16.4760 C   0  0  2  0  0  0  0  0  0  0  0  0
    2.1290   17.7650   15.1200 C   0  0  1  0  0  0  0  0  0  0  0  0
    1.9050   17.6870   18.8700 O   0  0  0  0  0  0  0  0  0  0  0  0
    3.4140   19.3260   13.6000 C   0  0  0  0  0  0  0  0  0  0  0  0
    0.4410   18.8840   16.5680 N   0  0  0  0  0  0  0  0  0  0  0  0
    0.6080   16.3950   16.6110 C   0  0  0  0  0  0  0  0  0  0  0  0
   -0.5490   16.3170   15.7990 O   0  0  0  0  0  0  0  0  0  0  0  0
    1.1910   17.7680   13.9910 O   0  0  0  0  0  0  0  0  0  0  0  0
    1.1980   16.6930   12.9620 C   0  0  2  0  0  0  0  0  0  0  0  0
    2.4800   15.8130   12.9030 C   0  0  0  0  0  0  0  0  0  0  0  0
    0.8830   17.3000   11.6100 C   0  0  0  0  0  0  0  0  0  0  0  0
   -0.0560   16.9400   10.9000 O   0  0  0  0  0  0  0  0  0  0  0  0
    2.8120   15.2830   11.4940 C   0  0  2  0  0  0  0  0  0  0  0  0
    1.8750   18.0240   11.0850 O   0  0  0  0  0  0  0  0  0  0  0  0
    2.7010   17.4390   10.0330 C   0  0  1  0  0  0  0  0  0  0  0  0
    3.7010   14.1950   11.5640 O   0  0  0  0  0  0  0  0  0  0  0  0
    3.5330   18.5260    9.3710 C   0  0  0  0  0  0  0  0  0  0  0  0
    4.2970   19.1990   10.1020 O   0  5  0  0  0  0  0  0  0  0  0  0
    3.5720   16.2940   10.6200 C   0  0  2  0  0  0  0  0  0  0  0  0
    3.4030   18.6920    8.1390 O   0  0  0  0  0  0  0  0  0  0  0  0
    4.2340   15.3720    9.5800 C   0  0  1  0  0  0  0  0  0  0  0  0
    5.6660   15.7660    9.2050 C   0  0  0  0  0  0  0  0  0  0  0  0
    6.5080   15.8360   10.1280 O   0  5  0  0  0  0  0  0  0  0  0  0
    5.9110   15.9350    7.9920 O   0  0  0  0  0  0  0  0  0  0  0  0
    4.1900   13.9930   10.2520 C   0  0  0  0  0  0  0  0  0  0  0  0
    8.3180   20.8980   19.6880 H   0  0  0  0  0  0  0  0  0  0  0  0
    6.8630   18.9850   19.2120 H   0  0  0  0  0  0  0  0  0  0  0  0
    2.6070   19.9030   17.7980 H   0  0  0  0  0  0  0  0  0  0  0  0
    3.6520   21.6630   18.3760 H   0  0  0  0  0  0  0  0  0  0  0  0
    7.4460   23.1760   19.5000 H   0  0  0  0  0  0  0  0  0  0  0  0
    5.1170   23.5560   18.8500 H   0  0  0  0  0  0  0  0  0  0  0  0
    3.1550   16.9760   17.4250 H   0  0  0  0  0  0  0  0  0  0  0  0
    2.7000   16.8500   15.0870 H   0  0  0  0  0  0  0  0  0  0  0  0
    1.3600   18.4610   19.0390 H   0  0  0  0  0  0  0  0  0  0  0  0
    4.1650   20.1020   13.5530 H   0  0  0  0  0  0  0  0  0  0  0  0
    3.7840   18.5100   12.9980 H   0  0  0  0  0  0  0  0  0  0  0  0
    2.5420   19.7260   13.1000 H   0  0  0  0  0  0  0  0  0  0  0  0
    0.9550   19.7450   16.4430 H   0  0  0  0  0  0  0  0  0  0  0  0
   -0.2330   18.8090   15.8180 H   0  0  0  0  0  0  0  0  0  0  0  0
    1.2780   15.5850   16.3330 H   0  0  0  0  0  0  0  0  0  0  0  0
    0.2940   16.2460   17.6440 H   0  0  0  0  0  0  0  0  0  0  0  0
   -1.1740   16.9820   16.0990 H   0  0  0  0  0  0  0  0  0  0  0  0
    0.3710   16.0410   13.2110 H   0  0  0  0  0  0  0  0  0  0  0  0
    3.3520   16.3680   13.2400 H   0  0  0  0  0  0  0  0  0  0  0  0
    2.3380   14.9670   13.5770 H   0  0  0  0  0  0  0  0  0  0  0  0
    1.9030   14.9490   10.9890 H   0  0  0  0  0  0  0  0  0  0  0  0
    2.0340   17.0200    9.2910 H   0  0  0  0  0  0  0  0  0  0  0  0
    4.3420   16.7620   11.2290 H   0  0  0  0  0  0  0  0  0  0  0  0
    3.6220   15.3350    8.6780 H   0  0  0  0  0  0  0  0  0  0  0  0
    5.1780   13.5320   10.2860 H   0  0  0  0  0  0  0  0  0  0  0  0
    3.5040   13.3460    9.7040 H   0  0  0  0  0  0  0  0  0  0  0  0
  1  2  1  0  0  0  0
  1  7  2  0  0  0  0
  1 38  1  0  0  0  0
  2  3  2  0  0  0  0
  2 39  1  0  0  0  0
  3  4  1  0  0  0  0
  3  6  1  0  0  0  0
  4  5  1  0  0  0  0
  5  9  1  0  0  0  0
  5 11  1  0  0  0  0
  5 40  1  0  0  0  0
  6  8  2  0  0  0  0
  6 41  1  0  0  0  0
  7  8  1  0  0  0  0
  7 42  1  0  0  0  0
  8 43  1  0  0  0  0
  9 10  2  0  0  0  0
  9 12  1  0  0  0  0
 11 13  1  0  0  0  0
 11 15  1  0  0  0  0
 11 44  1  0  0  0  0
 12 14  1  0  0  0  0
 12 16  1  0  0  0  0
 13 14  1  0  0  0  0
 13 17  1  0  0  0  0
 13 18  1  0  0  0  0
 14 20  1  0  0  0  0
 14 45  1  0  0  0  0
 15 46  1  0  0  0  0
 16 47  1  0  0  0  0
 16 48  1  0  0  0  0
 16 49  1  0  0  0  0
 17 50  1  0  0  0  0
 17 51  1  0  0  0  0
 18 19  1  0  0  0  0
 18 52  1  0  0  0  0
 18 53  1  0  0  0  0
 19 54  1  0  0  0  0
 20 21  1  0  0  0  0
 21 22  1  0  0  0  0
 21 23  1  0  0  0  0
 21 55  1  0  0  0  0
 22 25  1  0  0  0  0
 22 56  1  0  0  0  0
 22 57  1  0  0  0  0
 23 24  2  0  0  0  0
 23 26  1  0  0  0  0
 25 28  1  0  0  0  0
 25 31  1  0  0  0  0
 25 58  1  0  0  0  0
 26 27  1  0  0  0  0
 27 29  1  0  0  0  0
 27 31  1  0  0  0  0
 27 59  1  0  0  0  0
 28 37  1  0  0  0  0
 29 30  1  0  0  0  0
 29 32  2  0  0  0  0
 31 33  1  0  0  0  0
 31 60  1  0  0  0  0
 33 34  1  0  0  0  0
 33 37  1  0  0  0  0
 33 61  1  0  0  0  0
 34 35  1  0  0  0  0
 34 36  2  0  0  0  0
 37 62  1  0  0  0  0
 37 63  1  0  0  0  0
M  CHG  1  30  -1
M  CHG  1  35  -1
M  END
> <rseq>
1

> <mseq>
497

> <S>
-6.676745

> <rmsd_refine>
1.365139

> <E_conf>
-6.757819

> <E_score1>
-13.63354

> <E_refine>
-36.89214

> <E_score2>
-6.676745

>  <$File>
outputs/pdb_4j58_cleaned.pdb_2024_06_17__22_47_40_V2_BS398_MIN1_/SDF/sdf_db.sdf

> <Rec_index>
1

>  <PLIF_raw>
[[35,30,30,35],[823,823,829,823],[54,54,54,54],[2,7,7,7],[5,0.604915487,3.572558102,4.848225872]]

> <FP:PLIF>
6 19 1 16

>  <PLIF_ligidx>
[35,35,[30,30,35],[30,35]]

$$$$
497
  MOE2022           3D

 61 65  0  0  1  0  0  0  0  0999 V2000
    6.5640   20.1830   19.3320 C   0  0  0  0  0  0  0  0  0  0  0  0
    7.5840   21.0010   18.9130 C   0  0  0  0  0  0  0  0  0  0  0  0
    5.4990   19.8690   18.4620 C   0  0  0  0  0  0  0  0  0  0  0  0
    4.4420   19.0250   18.8650 C   0  0  0  0  0  0  0  0  0  0  0  0
    3.4680   18.6440   17.9710 C   0  0  0  0  0  0  0  0  0  0  0  0
    7.5670   21.5630   17.6240 C   0  0  0  0  0  0  0  0  0  0  0  0
    8.6990   22.4820   17.2340 C   0  0  0  0  0  0  0  0  0  0  0  0
    6.5150   21.3000   16.7490 C   0  0  0  0  0  0  0  0  0  0  0  0
    3.5770   19.1580   16.6360 C   0  0  0  0  0  0  0  0  0  0  0  0
    6.4330   21.9620   15.4490 C   0  0  0  0  0  0  0  0  0  0  0  0
    2.3950   17.7370   18.4060 C   0  0  0  0  0  0  0  0  0  0  0  0
    7.2950   21.7100   14.5590 O   0  0  0  0  0  0  0  0  0  0  0  0
    5.5080   22.7880   15.2330 O   0  5  0  0  0  0  0  0  0  0  0  0
    2.6000   16.9850   19.4010 O   0  5  0  0  0  0  0  0  0  0  0  0
    1.2820   17.6990   17.8110 O   0  0  0  0  0  0  0  0  0  0  0  0
    2.6710   18.7510   15.6760 N   0  0  0  0  0  0  0  0  0  0  0  0
    5.4930   20.3880   17.1470 C   0  0  0  0  0  0  0  0  0  0  0  0
    2.4780   19.4430   14.4040 C   0  0  0  0  0  0  0  0  0  0  0  0
    4.5270   19.9910   16.2630 N   0  0  0  0  0  0  0  0  0  0  0  0
    1.9390   18.5170   13.3130 C   0  0  1  0  0  0  0  0  0  0  0  0
    2.8190   17.2850   13.0950 C   0  0  0  0  0  0  0  0  0  0  0  0
    0.5450   17.9230   13.5610 C   0  0  0  0  0  0  0  0  0  0  0  0
    0.5750   16.5270   12.9260 C   0  0  0  0  0  0  0  0  0  0  0  0
    1.9710   16.2260   12.4720 N   0  3  1  0  0  0  0  0  0  0  0  0
    2.0860   16.1960   10.9740 C   0  0  0  0  0  0  0  0  0  0  0  0
    3.3860   15.6390   10.4310 C   0  0  0  0  0  0  0  0  0  0  0  0
    3.6030   14.2920   10.2070 C   0  0  0  0  0  0  0  0  0  0  0  0
    2.6150   13.2460   10.5080 C   0  0  0  0  0  0  0  0  0  0  0  0
    1.5480   13.4220   11.0900 O   0  0  0  0  0  0  0  0  0  0  0  0
    2.8800   11.9500   10.1240 N   0  0  0  0  0  0  0  0  0  0  0  0
    4.8590   13.8790    9.6330 C   0  0  0  0  0  0  0  0  0  0  0  0
    4.0930   11.5660    9.5390 C   0  0  0  0  0  0  0  0  0  0  0  0
    5.8290   14.8140    9.3710 C   0  0  0  0  0  0  0  0  0  0  0  0
    5.0590   12.4850    9.3150 C   0  0  0  0  0  0  0  0  0  0  0  0
    4.4060   16.6000   10.1270 C   0  0  0  0  0  0  0  0  0  0  0  0
    4.3190   17.8240   10.2930 O   0  0  0  0  0  0  0  0  0  0  0  0
    5.5980   16.1390    9.6160 N   0  0  0  0  0  0  0  0  0  0  0  0
    6.5800   19.7780   20.3080 H   0  0  0  0  0  0  0  0  0  0  0  0
    8.3870   21.2190   19.5690 H   0  0  0  0  0  0  0  0  0  0  0  0
    4.4060   18.6860   19.8640 H   0  0  0  0  0  0  0  0  0  0  0  0
    9.1540   22.1650   16.2970 H   0  0  0  0  0  0  0  0  0  0  0  0
    8.3220   23.4970   17.1190 H   0  0  0  0  0  0  0  0  0  0  0  0
    9.4810   22.4840   17.9920 H   0  0  0  0  0  0  0  0  0  0  0  0
    1.8400   18.2610   16.0520 H   0  0  0  0  0  0  0  0  0  0  0  0
    1.7800   20.2700   14.5470 H   0  0  0  0  0  0  0  0  0  0  0  0
    3.4220   19.8580   14.0470 H   0  0  0  0  0  0  0  0  0  0  0  0
    1.9220   19.0580   12.3660 H   0  0  0  0  0  0  0  0  0  0  0  0
    3.7020   17.5420   12.5270 H   0  0  0  0  0  0  0  0  0  0  0  0
    3.1960   16.9600   14.0560 H   0  0  0  0  0  0  0  0  0  0  0  0
    0.3590   17.8100   14.6300 H   0  0  0  0  0  0  0  0  0  0  0  0
   -0.2310   18.5440   13.1140 H   0  0  0  0  0  0  0  0  0  0  0  0
    0.2150   15.8050   13.6470 H   0  0  0  0  0  0  0  0  0  0  0  0
   -0.1390   16.4850   12.1130 H   0  0  0  0  0  0  0  0  0  0  0  0
    2.2410   15.3190   12.8290 H   0  0  0  0  0  0  0  0  0  0  0  0
    1.2750   15.6320   10.5350 H   0  0  0  0  0  0  0  0  0  0  0  0
    1.9460   17.1860   10.5580 H   0  0  0  0  0  0  0  0  0  0  0  0
    2.1520   11.2400   10.3040 H   0  0  0  0  0  0  0  0  0  0  0  0
    4.1780   10.5340    9.3110 H   0  0  0  0  0  0  0  0  0  0  0  0
    6.7790   14.5910    8.9620 H   0  0  0  0  0  0  0  0  0  0  0  0
    5.9820   12.1890    8.8870 H   0  0  0  0  0  0  0  0  0  0  0  0
    6.3240   16.8390    9.3820 H   0  0  0  0  0  0  0  0  0  0  0  0
  1  2  1  0  0  0  0
  1  3  2  0  0  0  0
  1 38  1  0  0  0  0
  2  6  2  0  0  0  0
  2 39  1  0  0  0  0
  3  4  1  0  0  0  0
  3 17  1  0  0  0  0
  4  5  2  0  0  0  0
  4 40  1  0  0  0  0
  5  9  1  0  0  0  0
  5 11  1  0  0  0  0
  6  7  1  0  0  0  0
  6  8  1  0  0  0  0
  7 41  1  0  0  0  0
  7 42  1  0  0  0  0
  7 43  1  0  0  0  0
  8 10  1  0  0  0  0
  8 17  2  0  0  0  0
  9 16  1  0  0  0  0
  9 19  2  0  0  0  0
 10 12  2  0  0  0  0
 10 13  1  0  0  0  0
 11 14  1  0  0  0  0
 11 15  2  0  0  0  0
 16 18  1  0  0  0  0
 16 44  1  0  0  0  0
 17 19  1  0  0  0  0
 18 20  1  0  0  0  0
 18 45  1  0  0  0  0
 18 46  1  0  0  0  0
 20 21  1  0  0  0  0
 20 22  1  0  0  0  0
 20 47  1  0  0  0  0
 21 24  1  0  0  0  0
 21 48  1  0  0  0  0
 21 49  1  0  0  0  0
 22 23  1  0  0  0  0
 22 50  1  0  0  0  0
 22 51  1  0  0  0  0
 23 24  1  0  0  0  0
 23 52  1  0  0  0  0
 23 53  1  0  0  0  0
 24 25  1  0  0  0  0
 24 54  1  0  0  0  0
 25 26  1  0  0  0  0
 25 55  1  0  0  0  0
 25 56  1  0  0  0  0
 26 27  2  0  0  0  0
 26 35  1  0  0  0  0
 27 28  1  0  0  0  0
 27 31  1  0  0  0  0
 28 29  2  0  0  0  0
 28 30  1  0  0  0  0
 30 32  1  0  0  0  0
 30 57  1  0  0  0  0
 31 33  2  0  0  0  0
 31 34  1  0  0  0  0
 32 34  2  0  0  0  0
 32 58  1  0  0  0  0
 33 37  1  0  0  0  0
 33 59  1  0  0  0  0
 34 60  1  0  0  0  0
 35 36  2  0  0  0  0
 35 37  1  0  0  0  0
 37 61  1  0  0  0  0
M  CHG  1  13  -1
M  CHG  1  14  -1
M  CHG  1  24   1
M  END
> <rseq>
1

> <mseq>
498

> <S>
-6.595891

> <rmsd_refine>
1.39959

> <E_conf>
-280.9081

> <E_score1>
-11.86858

> <E_refine>
-39.45598

> <E_score2>
-6.595891

>  <$File>
outputs/pdb_4j58_cleaned.pdb_2024_06_17__22_47_40_V2_BS398_MIN1_/SDF/sdf_db.sdf

> <Rec_index>
1

>  <PLIF_raw>
[[37,12,12,12,27,28,30,32,34,31],[2222,826,826,829,1057,1057,1057,1057,1057,1057],[148,54,54,54,70,70,70,70,70,70],[3,2,7,7,10,10,10,10,10,10],[2.2,4.4,5.458439629,1.957801338,0.5,0.5,0.5,0.5,0.5,0.5]]

> <FP:PLIF>
6 19 1 16 43 39 40

>  <PLIF_ligidx>
[12,12,[12,12],12,[27,28,30,32,34,31],37,37]

$$$$
498
  MOE2022           3D

 63 67  0  0  1  0  0  0  0  0999 V2000
    3.6640   17.9560   19.2960 O   0  0  0  0  0  0  0  0  0  0  0  0
    2.7710   17.6310   18.5050 C   0  0  0  0  0  0  0  0  0  0  0  0
    1.6050   16.8770   18.8790 C   0  0  0  0  0  0  0  0  0  0  0  0
    2.9030   17.9800   17.1530 N   0  0  0  0  0  0  0  0  0  0  0  0
    0.6970   16.5370   17.9210 C   0  0  0  0  0  0  0  0  0  0  0  0
    1.9830   17.4830   16.2070 C   0  0  0  0  0  0  0  0  0  0  0  0
    0.9210   16.8390   16.5990 N   0  0  0  0  0  0  0  0  0  0  0  0
    2.2970   17.5900   14.7890 C   0  0  0  0  0  0  0  0  0  0  0  0
    4.0620   18.8180   16.7160 C   0  0  0  0  0  0  0  0  0  0  0  0
    1.4230   16.4550   20.3300 C   0  0  0  0  0  0  0  0  0  0  0  0
   -0.5680   15.7550   18.2180 C   0  0  0  0  0  0  0  0  0  0  0  0
    3.8100   20.3410   16.6370 C   0  0  1  0  0  0  0  0  0  0  0  0
    4.0390   21.0710   17.9620 C   0  0  0  0  0  0  0  0  0  0  0  0
    2.1460   18.7850   14.0630 C   0  0  0  0  0  0  0  0  0  0  0  0
    4.8410   21.0160   15.7430 C   0  0  0  0  0  0  0  0  0  0  0  0
    2.5310   18.8620   12.7250 C   0  0  0  0  0  0  0  0  0  0  0  0
    3.0500   17.7320   12.0910 C   0  0  0  0  0  0  0  0  0  0  0  0
    4.7890   20.9690   14.5140 O   0  0  0  0  0  0  0  0  0  0  0  0
    2.7760   16.4560   14.1120 C   0  0  0  0  0  0  0  0  0  0  0  0
    5.4660   21.6580   17.9110 C   0  0  1  0  0  0  0  0  0  0  0  0
    5.7800   21.6370   16.4670 N   0  0  0  0  0  0  0  0  0  0  0  0
    6.9540   22.2950   15.8860 C   0  0  0  0  0  0  0  0  0  0  0  0
    5.4580   23.1190   18.4140 C   0  0  0  0  0  0  0  0  0  0  0  0
    3.5050   17.8340   10.7920 O   0  0  0  0  0  0  0  0  0  0  0  0
    2.8830   15.2630   14.7720 O   0  0  0  0  0  0  0  0  0  0  0  0
    4.0480   16.7540   10.1350 C   0  0  0  0  0  0  0  0  0  0  0  0
    6.4180   20.7950   18.7660 C   0  0  0  0  0  0  0  0  0  0  0  0
    4.7370   16.9400    8.9900 C   0  0  0  0  0  0  0  0  0  0  0  0
    3.8160   15.3660   10.7150 C   0  0  2  0  0  0  0  0  0  0  0  0
    3.1500   16.5220   12.7740 C   0  0  0  0  0  0  0  0  0  0  0  0
    3.6350   15.3970   12.1430 O   0  0  0  0  0  0  0  0  0  0  0  0
    7.2530   20.0590   18.1930 O   0  0  0  0  0  0  0  0  0  0  0  0
    6.2940   20.8520   20.0130 O   0  5  0  0  0  0  0  0  0  0  0  0
    4.9440   14.3800   10.3290 C   0  0  1  0  0  0  0  0  0  0  0  0
    4.4990   13.0190   10.4800 O   0  0  0  0  0  0  0  0  0  0  0  0
    5.3770   15.8200    8.3280 C   0  0  0  0  0  0  0  0  0  0  0  0
    5.4680   14.6130    8.9220 C   0  0  0  0  0  0  0  0  0  0  0  0
    4.9160   18.6620   17.3580 H   0  0  0  0  0  0  0  0  0  0  0  0
    4.4210   18.4750   15.7570 H   0  0  0  0  0  0  0  0  0  0  0  0
    0.5920   16.9730   20.7850 H   0  0  0  0  0  0  0  0  0  0  0  0
    1.2320   15.3930   20.4010 H   0  0  0  0  0  0  0  0  0  0  0  0
    2.2990   16.6480   20.9340 H   0  0  0  0  0  0  0  0  0  0  0  0
   -1.0610   16.1070   19.1120 H   0  0  0  0  0  0  0  0  0  0  0  0
   -1.2830   15.8330   17.4110 H   0  0  0  0  0  0  0  0  0  0  0  0
   -0.3510   14.7050   18.3550 H   0  0  0  0  0  0  0  0  0  0  0  0
    2.8030   20.5340   16.2710 H   0  0  0  0  0  0  0  0  0  0  0  0
    3.3030   21.8720   18.0450 H   0  0  0  0  0  0  0  0  0  0  0  0
    3.9270   20.4030   18.8080 H   0  0  0  0  0  0  0  0  0  0  0  0
    1.7400   19.6400   14.5370 H   0  0  0  0  0  0  0  0  0  0  0  0
    2.4370   19.7740   12.1950 H   0  0  0  0  0  0  0  0  0  0  0  0
    6.8190   23.3660   15.8390 H   0  0  0  0  0  0  0  0  0  0  0  0
    7.8410   22.1030   16.4750 H   0  0  0  0  0  0  0  0  0  0  0  0
    7.1570   21.9490   14.8820 H   0  0  0  0  0  0  0  0  0  0  0  0
    5.0270   23.1750   19.4110 H   0  0  0  0  0  0  0  0  0  0  0  0
    6.4730   23.5150   18.4560 H   0  0  0  0  0  0  0  0  0  0  0  0
    4.8660   23.7550   17.7540 H   0  0  0  0  0  0  0  0  0  0  0  0
    2.4530   15.3120   15.6510 H   0  0  0  0  0  0  0  0  0  0  0  0
    4.8340   17.9040    8.5610 H   0  0  0  0  0  0  0  0  0  0  0  0
    2.8890   14.9970   10.2950 H   0  0  0  0  0  0  0  0  0  0  0  0
    5.7680   14.5130   11.0170 H   0  0  0  0  0  0  0  0  0  0  0  0
    4.2890   12.8410   11.4140 H   0  0  0  0  0  0  0  0  0  0  0  0
    5.7880   15.9800    7.3640 H   0  0  0  0  0  0  0  0  0  0  0  0
    5.9490   13.7960    8.4480 H   0  0  0  0  0  0  0  0  0  0  0  0
  1  2  2  0  0  0  0
  2  3  1  0  0  0  0
  2  4  1  0  0  0  0
  3  5  2  0  0  0  0
  3 10  1  0  0  0  0
  4  6  1  0  0  0  0
  4  9  1  0  0  0  0
  5  7  1  0  0  0  0
  5 11  1  0  0  0  0
  6  7  2  0  0  0  0
  6  8  1  0  0  0  0
  8 14  1  0  0  0  0
  8 19  2  0  0  0  0
  9 12  1  0  0  0  0
  9 38  1  0  0  0  0
  9 39  1  0  0  0  0
 10 40  1  0  0  0  0
 10 41  1  0  0  0  0
 10 42  1  0  0  0  0
 11 43  1  0  0  0  0
 11 44  1  0  0  0  0
 11 45  1  0  0  0  0
 12 13  1  0  0  0  0
 12 15  1  0  0  0  0
 12 46  1  0  0  0  0
 13 20  1  0  0  0  0
 13 47  1  0  0  0  0
 13 48  1  0  0  0  0
 14 16  2  0  0  0  0
 14 49  1  0  0  0  0
 15 18  2  0  0  0  0
 15 21  1  0  0  0  0
 16 17  1  0  0  0  0
 16 50  1  0  0  0  0
 17 24  1  0  0  0  0
 17 30  2  0  0  0  0
 19 25  1  0  0  0  0
 19 30  1  0  0  0  0
 20 21  1  0  0  0  0
 20 23  1  0  0  0  0
 20 27  1  0  0  0  0
 21 22  1  0  0  0  0
 22 51  1  0  0  0  0
 22 52  1  0  0  0  0
 22 53  1  0  0  0  0
 23 54  1  0  0  0  0
 23 55  1  0  0  0  0
 23 56  1  0  0  0  0
 24 26  1  0  0  0  0
 25 57  1  0  0  0  0
 26 28  2  0  0  0  0
 26 29  1  0  0  0  0
 27 32  2  0  0  0  0
 27 33  1  0  0  0  0
 28 36  1  0  0  0  0
 28 58  1  0  0  0  0
 29 31  1  0  0  0  0
 29 34  1  0  0  0  0
 29 59  1  0  0  0  0
 30 31  1  0  0  0  0
 34 35  1  0  0  0  0
 34 37  1  0  0  0  0
 34 60  1  0  0  0  0
 35 61  1  0  0  0  0
 36 37  2  0  0  0  0
 36 62  1  0  0  0  0
 37 63  1  0  0  0  0
M  CHG  1  33  -1
M  END
> <rseq>
1

> <mseq>
499

> <S>
-7.126396

> <rmsd_refine>
1.258546

> <E_conf>
-4.951119

> <E_score1>
-13.7116

> <E_refine>
-41.83619

> <E_score2>
-7.126396

>  <$File>
outputs/pdb_4j58_cleaned.pdb_2024_06_17__22_47_40_V2_BS398_MIN1_/SDF/sdf_db.sdf

> <Rec_index>
1

>  <PLIF_raw>
[[35,33,33],[1056,1866,1872],[70,125,125],[3,7,7],[1.2,1.014700275,1.034181693]]

> <FP:PLIF>
3 13

>  <PLIF_ligidx>
[35,[33,33]]

$$$$
481
  MOE2022           3D

 63 67  0  0  1  0  0  0  0  0999 V2000
    3.6440   18.0330   19.1130 O   0  0  0  0  0  0  0  0  0  0  0  0
    2.7450   17.6200   18.3680 C   0  0  0  0  0  0  0  0  0  0  0  0
    1.6370   16.8160   18.8090 C   0  0  0  0  0  0  0  0  0  0  0  0
    2.8030   17.9340   17.0040 N   0  0  0  0  0  0  0  0  0  0  0  0
    0.7120   16.4000   17.8990 C   0  0  0  0  0  0  0  0  0  0  0  0
    1.8690   17.3730   16.1120 C   0  0  0  0  0  0  0  0  0  0  0  0
    0.8610   16.6810   16.5600 N   0  0  0  0  0  0  0  0  0  0  0  0
    2.0910   17.5310   14.6820 C   0  0  0  0  0  0  0  0  0  0  0  0
    3.8460   18.8800   16.5070 C   0  0  0  0  0  0  0  0  0  0  0  0
    1.5270   16.4410   20.2790 C   0  0  0  0  0  0  0  0  0  0  0  0
   -0.5010   15.5720   18.2760 C   0  0  0  0  0  0  0  0  0  0  0  0
    3.3910   20.3560   16.4360 C   0  0  1  0  0  0  0  0  0  0  0  0
    3.2860   21.0410   17.8000 C   0  0  0  0  0  0  0  0  0  0  0  0
    1.6120   18.6510   13.9790 C   0  0  0  0  0  0  0  0  0  0  0  0
    4.3560   21.2740   15.6940 C   0  0  0  0  0  0  0  0  0  0  0  0
    1.8860   18.8160   12.6230 C   0  0  0  0  0  0  0  0  0  0  0  0
    2.6230   17.8430   11.9460 C   0  0  0  0  0  0  0  0  0  0  0  0
    4.8670   20.9810   14.6140 O   0  0  0  0  0  0  0  0  0  0  0  0
    2.7980   16.5480   13.9700 C   0  0  0  0  0  0  0  0  0  0  0  0
    3.7350   22.5040   17.5910 C   0  0  1  0  0  0  0  0  0  0  0  0
    4.5160   22.4320   16.3460 N   0  0  0  0  0  0  0  0  0  0  0  0
    5.4150   23.5000   15.9060 C   0  0  0  0  0  0  0  0  0  0  0  0
    2.4890   23.3870   17.3370 C   0  0  0  0  0  0  0  0  0  0  0  0
    2.9500   18.0430   10.6180 O   0  0  0  0  0  0  0  0  0  0  0  0
    3.2460   15.4260   14.6100 O   0  0  0  0  0  0  0  0  0  0  0  0
    3.6410   17.0870    9.8940 C   0  0  0  0  0  0  0  0  0  0  0  0
    4.5770   23.0150   18.7800 C   0  0  0  0  0  0  0  0  0  0  0  0
    4.2050   17.4160    8.7150 C   0  0  0  0  0  0  0  0  0  0  0  0
    3.7040   15.6910   10.4910 C   0  0  2  0  0  0  0  0  0  0  0  0
    3.0540   16.6960   12.6100 C   0  0  0  0  0  0  0  0  0  0  0  0
    3.7420   15.7140   11.9330 O   0  0  0  0  0  0  0  0  0  0  0  0
    5.6030   22.3730   19.1060 O   0  0  0  0  0  0  0  0  0  0  0  0
    4.8660   14.9320    9.8890 C   0  0  0  0  0  0  0  0  0  0  0  0
    5.8240   14.5940   10.5280 O   0  0  0  0  0  0  0  0  0  0  0  0
    4.9030   14.9730    8.3830 C   0  0  0  0  0  0  0  0  0  0  0  0
    5.0150   16.4260    7.8870 C   0  0  0  0  0  0  0  0  0  0  0  0
    4.2220   24.0590   19.3750 O   0  5  0  0  0  0  0  0  0  0  0  0
    4.7420   18.8220   17.1080 H   0  0  0  0  0  0  0  0  0  0  0  0
    4.1920   18.5730   15.5300 H   0  0  0  0  0  0  0  0  0  0  0  0
    0.6860   16.9350   20.7440 H   0  0  0  0  0  0  0  0  0  0  0  0
    1.3930   15.3750   20.3970 H   0  0  0  0  0  0  0  0  0  0  0  0
    2.4110   16.7020   20.8440 H   0  0  0  0  0  0  0  0  0  0  0  0
   -1.0570   16.0290   19.0830 H   0  0  0  0  0  0  0  0  0  0  0  0
   -1.1820   15.4560   17.4440 H   0  0  0  0  0  0  0  0  0  0  0  0
   -0.2140   14.5810   18.5960 H   0  0  0  0  0  0  0  0  0  0  0  0
    2.4240   20.4150   15.9410 H   0  0  0  0  0  0  0  0  0  0  0  0
    2.2690   20.9740   18.1870 H   0  0  0  0  0  0  0  0  0  0  0  0
    3.9680   20.5520   18.4940 H   0  0  0  0  0  0  0  0  0  0  0  0
    1.0390   19.3830   14.4880 H   0  0  0  0  0  0  0  0  0  0  0  0
    1.5410   19.6760   12.1090 H   0  0  0  0  0  0  0  0  0  0  0  0
    4.9620   24.4740   16.0340 H   0  0  0  0  0  0  0  0  0  0  0  0
    6.3340   23.4930   16.4760 H   0  0  0  0  0  0  0  0  0  0  0  0
    5.6790   23.4040   14.8620 H   0  0  0  0  0  0  0  0  0  0  0  0
    1.8420   23.4000   18.2160 H   0  0  0  0  0  0  0  0  0  0  0  0
    2.7800   24.4150   17.1190 H   0  0  0  0  0  0  0  0  0  0  0  0
    1.9080   23.0140   16.4930 H   0  0  0  0  0  0  0  0  0  0  0  0
    3.6360   14.8010   13.9650 H   0  0  0  0  0  0  0  0  0  0  0  0
    4.1350   18.4000    8.3290 H   0  0  0  0  0  0  0  0  0  0  0  0
    2.7870   15.1890   10.2090 H   0  0  0  0  0  0  0  0  0  0  0  0
    5.7130   14.3710    7.9990 H   0  0  0  0  0  0  0  0  0  0  0  0
    3.9900   14.5390    7.9980 H   0  0  0  0  0  0  0  0  0  0  0  0
    4.7280   16.4840    6.8460 H   0  0  0  0  0  0  0  0  0  0  0  0
    6.0550   16.7190    7.9260 H   0  0  0  0  0  0  0  0  0  0  0  0
  1  2  2  0  0  0  0
  2  3  1  0  0  0  0
  2  4  1  0  0  0  0
  3  5  2  0  0  0  0
  3 10  1  0  0  0  0
  4  6  1  0  0  0  0
  4  9  1  0  0  0  0
  5  7  1  0  0  0  0
  5 11  1  0  0  0  0
  6  7  2  0  0  0  0
  6  8  1  0  0  0  0
  8 14  1  0  0  0  0
  8 19  2  0  0  0  0
  9 12  1  0  0  0  0
  9 38  1  0  0  0  0
  9 39  1  0  0  0  0
 10 40  1  0  0  0  0
 10 41  1  0  0  0  0
 10 42  1  0  0  0  0
 11 43  1  0  0  0  0
 11 44  1  0  0  0  0
 11 45  1  0  0  0  0
 12 13  1  0  0  0  0
 12 15  1  0  0  0  0
 12 46  1  0  0  0  0
 13 20  1  0  0  0  0
 13 47  1  0  0  0  0
 13 48  1  0  0  0  0
 14 16  2  0  0  0  0
 14 49  1  0  0  0  0
 15 18  2  0  0  0  0
 15 21  1  0  0  0  0
 16 17  1  0  0  0  0
 16 50  1  0  0  0  0
 17 24  1  0  0  0  0
 17 30  2  0  0  0  0
 19 25  1  0  0  0  0
 19 30  1  0  0  0  0
 20 21  1  0  0  0  0
 20 23  1  0  0  0  0
 20 27  1  0  0  0  0
 21 22  1  0  0  0  0
 22 51  1  0  0  0  0
 22 52  1  0  0  0  0
 22 53  1  0  0  0  0
 23 54  1  0  0  0  0
 23 55  1  0  0  0  0
 23 56  1  0  0  0  0
 24 26  1  0  0  0  0
 25 57  1  0  0  0  0
 26 28  2  0  0  0  0
 26 29  1  0  0  0  0
 27 32  2  0  0  0  0
 27 37  1  0  0  0  0
 28 36  1  0  0  0  0
 28 58  1  0  0  0  0
 29 31  1  0  0  0  0
 29 33  1  0  0  0  0
 29 59  1  0  0  0  0
 30 31  1  0  0  0  0
 33 34  2  0  0  0  0
 33 35  1  0  0  0  0
 35 36  1  0  0  0  0
 35 60  1  0  0  0  0
 35 61  1  0  0  0  0
 36 62  1  0  0  0  0
 36 63  1  0  0  0  0
M  CHG  1  37  -1
M  END
> <rseq>
1

> <mseq>
482

> <S>
-6.534533

> <rmsd_refine>
1.26503

> <E_conf>
-10.37085

> <E_score1>
-13.58985

> <E_refine>
-38.64162

> <E_score2>
-6.534533

>  <$File>
outputs/pdb_4j58_cleaned.pdb_2024_06_17__22_47_40_V2_BS398_MIN1_/SDF/sdf_db.sdf

> <Rec_index>
1

>  <PLIF_raw>
[[37,32,37,2,4,6,7,5,3],[1872,1872,1872,954,954,954,954,954,954],[125,125,125,62,62,62,62,62,62],[2,7,7,10,10,10,10,10,10],[7.3,2.734842818,4.895754327,0.9,0.9,0.9,0.9,0.9,0.9]]

> <FP:PLIF>
21 29 46 13 31

>  <PLIF_ligidx>
[[2,4,6,7,5,3],37,37,[32,37],37]

$$$$
482
  MOE2022           3D

 66 70  0  0  1  0  0  0  0  0999 V2000
    2.5820   16.2260   20.9990 C   0  0  0  0  0  0  0  0  0  0  0  0
    1.3020   15.8510   21.3690 C   0  0  0  0  0  0  0  0  0  0  0  0
    2.8030   16.8070   19.7600 C   0  0  0  0  0  0  0  0  0  0  0  0
    0.2420   16.0200   20.4840 C   0  0  0  0  0  0  0  0  0  0  0  0
    0.4680   16.5840   19.2300 C   0  0  0  0  0  0  0  0  0  0  0  0
    1.7480   17.0000   18.8670 C   0  0  0  0  0  0  0  0  0  0  0  0
    2.0060   17.6430   17.5150 C   0  0  1  0  0  0  0  0  0  0  0  0
    2.9230   18.7900   17.6890 N   0  0  0  0  0  0  0  0  0  0  0  0
    2.5000   16.6070   16.5090 C   0  0  0  0  0  0  0  0  0  0  0  0
    3.7590   19.3390   16.7430 C   0  0  0  0  0  0  0  0  0  0  0  0
    1.9310   16.6230   15.2980 N   0  0  0  0  0  0  0  0  0  0  0  0
    3.4960   19.1660   15.5550 O   0  0  0  0  0  0  0  0  0  0  0  0
    4.9300   20.0860   17.2130 C   0  0  0  0  0  0  0  0  0  0  0  0
    3.4530   15.8710   16.7550 O   0  0  0  0  0  0  0  0  0  0  0  0
    2.5630   16.0350   14.1250 C   0  0  1  0  0  0  0  0  0  0  0  0
    1.7800   14.8600   13.5730 C   0  0  0  0  0  0  0  0  0  0  0  0
    2.6380   17.0480   12.9850 C   0  0  0  0  0  0  0  0  0  0  0  0
    5.4580   19.8390   18.4940 C   0  0  0  0  0  0  0  0  0  0  0  0
    1.0840   15.3980   12.3200 C   0  0  1  0  0  0  0  0  0  0  0  0
    5.5900   21.0400   16.4020 C   0  0  0  0  0  0  0  0  0  0  0  0
    1.8590   16.5620   11.8350 N   0  0  0  0  0  0  0  0  0  0  0  0
    6.6050   20.4970   18.9200 C   0  0  0  0  0  0  0  0  0  0  0  0
    5.1170   21.3580   15.1600 O   0  0  0  0  0  0  0  0  0  0  0  0
    2.6410   16.4110   10.6490 C   0  0  0  0  0  0  0  0  0  0  0  0
    7.2550   21.4120   18.0860 C   0  0  0  0  0  0  0  0  0  0  0  0
    8.4020   22.0260   18.5010 O   0  0  0  0  0  0  0  0  0  0  0  0
    7.0980   20.2350   20.1710 O   0  0  0  0  0  0  0  0  0  0  0  0
    6.7450   21.6970   16.8260 C   0  0  0  0  0  0  0  0  0  0  0  0
    3.2970   17.5160   10.0720 C   0  0  0  0  0  0  0  0  0  0  0  0
    2.7820   15.1430   10.0520 C   0  0  0  0  0  0  0  0  0  0  0  0
    3.1240   18.9380   10.5820 C   0  0  0  0  0  0  0  0  0  0  0  0
    4.1320   17.3110    8.9740 C   0  0  0  0  0  0  0  0  0  0  0  0
    2.0820   14.0490   10.5280 O   0  0  0  0  0  0  0  0  0  0  0  0
    0.8630   14.3320   11.2400 C   0  0  0  0  0  0  0  0  0  0  0  0
    4.3060   16.0430    8.4220 C   0  0  0  0  0  0  0  0  0  0  0  0
    5.2230   15.8700    7.2350 C   0  0  0  0  0  0  0  0  0  0  0  0
    3.6230   14.9560    8.9630 C   0  0  0  0  0  0  0  0  0  0  0  0
    3.3900   16.0730   21.6620 H   0  0  0  0  0  0  0  0  0  0  0  0
    1.1500   15.4410   22.3290 H   0  0  0  0  0  0  0  0  0  0  0  0
    3.7830   17.1000   19.5000 H   0  0  0  0  0  0  0  0  0  0  0  0
   -0.7370   15.7250   20.7610 H   0  0  0  0  0  0  0  0  0  0  0  0
   -0.3400   16.7030   18.5550 H   0  0  0  0  0  0  0  0  0  0  0  0
    1.0690   18.0450   17.1530 H   0  0  0  0  0  0  0  0  0  0  0  0
    3.0650   19.0730   18.6710 H   0  0  0  0  0  0  0  0  0  0  0  0
    1.1530   17.2440   15.1320 H   0  0  0  0  0  0  0  0  0  0  0  0
    3.5780   15.7100   14.3540 H   0  0  0  0  0  0  0  0  0  0  0  0
    2.4870   14.0780   13.2890 H   0  0  0  0  0  0  0  0  0  0  0  0
    1.0650   14.4610   14.2930 H   0  0  0  0  0  0  0  0  0  0  0  0
    2.2610   18.0130   13.2980 H   0  0  0  0  0  0  0  0  0  0  0  0
    3.6750   17.2000   12.7230 H   0  0  0  0  0  0  0  0  0  0  0  0
    4.9960   19.1410   19.1410 H   0  0  0  0  0  0  0  0  0  0  0  0
    0.1140   15.7640   12.6280 H   0  0  0  0  0  0  0  0  0  0  0  0
    4.3070   20.8400   14.9660 H   0  0  0  0  0  0  0  0  0  0  0  0
    8.6680   21.6760   19.3750 H   0  0  0  0  0  0  0  0  0  0  0  0
    6.6200   19.4870   20.5780 H   0  0  0  0  0  0  0  0  0  0  0  0
    7.2290   22.4000   16.1970 H   0  0  0  0  0  0  0  0  0  0  0  0
    2.1040   19.1080   10.9260 H   0  0  0  0  0  0  0  0  0  0  0  0
    3.8130   19.1390   11.4010 H   0  0  0  0  0  0  0  0  0  0  0  0
    3.3240   19.6600    9.7890 H   0  0  0  0  0  0  0  0  0  0  0  0
    4.6420   18.1340    8.5440 H   0  0  0  0  0  0  0  0  0  0  0  0
    0.4840   13.4090   11.6800 H   0  0  0  0  0  0  0  0  0  0  0  0
    0.1320   14.6970   10.5180 H   0  0  0  0  0  0  0  0  0  0  0  0
    5.1660   14.8560    6.8390 H   0  0  0  0  0  0  0  0  0  0  0  0
    4.9480   16.5610    6.4390 H   0  0  0  0  0  0  0  0  0  0  0  0
    6.2510   16.0750    7.5320 H   0  0  0  0  0  0  0  0  0  0  0  0
    3.7340   13.9900    8.5440 H   0  0  0  0  0  0  0  0  0  0  0  0
  1  2  2  0  0  0  0
  1  3  1  0  0  0  0
  1 38  1  0  0  0  0
  2  4  1  0  0  0  0
  2 39  1  0  0  0  0
  3  6  2  0  0  0  0
  3 40  1  0  0  0  0
  4  5  2  0  0  0  0
  4 41  1  0  0  0  0
  5  6  1  0  0  0  0
  5 42  1  0  0  0  0
  6  7  1  0  0  0  0
  7  8  1  0  0  0  0
  7  9  1  0  0  0  0
  7 43  1  0  0  0  0
  8 10  1  0  0  0  0
  8 44  1  0  0  0  0
  9 11  1  0  0  0  0
  9 14  2  0  0  0  0
 10 12  2  0  0  0  0
 10 13  1  0  0  0  0
 11 15  1  0  0  0  0
 11 45  1  0  0  0  0
 13 18  1  0  0  0  0
 13 20  2  0  0  0  0
 15 16  1  0  0  0  0
 15 17  1  0  0  0  0
 15 46  1  0  0  0  0
 16 19  1  0  0  0  0
 16 47  1  0  0  0  0
 16 48  1  0  0  0  0
 17 21  1  0  0  0  0
 17 49  1  0  0  0  0
 17 50  1  0  0  0  0
 18 22  2  0  0  0  0
 18 51  1  0  0  0  0
 19 21  1  0  0  0  0
 19 34  1  0  0  0  0
 19 52  1  0  0  0  0
 20 23  1  0  0  0  0
 20 28  1  0  0  0  0
 21 24  1  0  0  0  0
 22 25  1  0  0  0  0
 22 27  1  0  0  0  0
 23 53  1  0  0  0  0
 24 29  1  0  0  0  0
 24 30  2  0  0  0  0
 25 26  1  0  0  0  0
 25 28  2  0  0  0  0
 26 54  1  0  0  0  0
 27 55  1  0  0  0  0
 28 56  1  0  0  0  0
 29 31  1  0  0  0  0
 29 32  2  0  0  0  0
 30 33  1  0  0  0  0
 30 37  1  0  0  0  0
 31 57  1  0  0  0  0
 31 58  1  0  0  0  0
 31 59  1  0  0  0  0
 32 35  1  0  0  0  0
 32 60  1  0  0  0  0
 33 34  1  0  0  0  0
 34 61  1  0  0  0  0
 34 62  1  0  0  0  0
 35 36  1  0  0  0  0
 35 37  2  0  0  0  0
 36 63  1  0  0  0  0
 36 64  1  0  0  0  0
 36 65  1  0  0  0  0
 37 66  1  0  0  0  0
M  END
> <rseq>
1

> <mseq>
483

> <S>
-7.432258

> <rmsd_refine>
1.430985

> <E_conf>
23.08483

> <E_score1>
-10.58758

> <E_refine>
-41.59689

> <E_score2>
-7.432258

>  <$File>
outputs/pdb_4j58_cleaned.pdb_2024_06_17__22_47_40_V2_BS398_MIN1_/SDF/sdf_db.sdf

> <Rec_index>
1

>  <PLIF_raw>
[[8,14,26,26,26,26,26,26],[1504,954,1651,1655,1659,1657,1653,1650],[101,62,112,112,112,112,112,112],[3,2,10,10,10,10,10,10],[1.1,1.8,2,2,2,2,2,2]]

> <FP:PLIF>
20 23 8 15 47

>  <PLIF_ligidx>
[14,14,8,[26,26,26,26,26,26],[26,26,26,26,26,26]]

$$$$
483
  MOE2022           3D

 67 71  0  0  1  0  0  0  0  0999 V2000
    3.7180   17.9700   19.3860 O   0  0  0  0  0  0  0  0  0  0  0  0
    2.8190   17.6580   18.5980 C   0  0  0  0  0  0  0  0  0  0  0  0
    1.6540   16.9010   18.9690 C   0  0  0  0  0  0  0  0  0  0  0  0
    2.9430   18.0270   17.2510 N   0  0  0  0  0  0  0  0  0  0  0  0
    0.7330   16.5870   18.0150 C   0  0  0  0  0  0  0  0  0  0  0  0
    2.0120   17.5510   16.3060 C   0  0  0  0  0  0  0  0  0  0  0  0
    0.9470   16.9120   16.6970 N   0  0  0  0  0  0  0  0  0  0  0  0
    2.3210   17.6670   14.8880 C   0  0  0  0  0  0  0  0  0  0  0  0
    4.1130   18.8490   16.8140 C   0  0  0  0  0  0  0  0  0  0  0  0
    1.4880   16.4460   20.4110 C   0  0  0  0  0  0  0  0  0  0  0  0
   -0.5330   15.8050   18.3060 C   0  0  0  0  0  0  0  0  0  0  0  0
    3.8930   20.3770   16.7410 C   0  0  1  0  0  0  0  0  0  0  0  0
    4.1690   21.0990   18.0610 C   0  0  0  0  0  0  0  0  0  0  0  0
    2.1920   18.8720   14.1740 C   0  0  0  0  0  0  0  0  0  0  0  0
    4.9280   21.0220   15.8300 C   0  0  0  0  0  0  0  0  0  0  0  0
    2.5660   18.9520   12.8330 C   0  0  0  0  0  0  0  0  0  0  0  0
    3.0480   17.8150   12.1820 C   0  0  0  0  0  0  0  0  0  0  0  0
    4.8420   20.9990   14.6020 O   0  0  0  0  0  0  0  0  0  0  0  0
    2.7700   16.5280   14.1990 C   0  0  0  0  0  0  0  0  0  0  0  0
    5.6140   21.6390   17.9850 C   0  0  1  0  0  0  0  0  0  0  0  0
    5.9110   21.5890   16.5380 N   0  0  0  0  0  0  0  0  0  0  0  0
    7.0980   22.2040   15.9360 C   0  0  0  0  0  0  0  0  0  0  0  0
    5.6600   23.1060   18.4600 C   0  0  0  0  0  0  0  0  0  0  0  0
    3.4820   17.9090   10.8720 O   0  0  0  0  0  0  0  0  0  0  0  0
    2.8620   15.3280   14.8490 O   0  0  0  0  0  0  0  0  0  0  0  0
    3.9210   16.7890   10.1850 C   0  0  0  0  0  0  0  0  0  0  0  0
    6.5470   20.7600   18.8460 C   0  0  0  0  0  0  0  0  0  0  0  0
    4.6310   16.9330    9.0520 C   0  0  0  0  0  0  0  0  0  0  0  0
    3.5400   15.4400   10.7710 C   0  0  2  0  0  0  0  0  0  0  0  0
    3.1250   16.5970   12.8560 C   0  0  0  0  0  0  0  0  0  0  0  0
    3.5580   15.4640   12.2040 O   0  0  0  0  0  0  0  0  0  0  0  0
    7.3690   20.0040   18.2800 O   0  0  0  0  0  0  0  0  0  0  0  0
    4.4310   14.3110   10.2360 C   0  0  0  0  0  0  0  0  0  0  0  0
    6.4190   20.8270   20.0920 O   0  5  0  0  0  0  0  0  0  0  0  0
    4.5660   14.3930    8.7080 C   0  0  1  0  0  0  0  0  0  0  0  0
    5.1910   15.7440    8.2900 C   0  0  0  0  0  0  0  0  0  0  0  0
    5.3580   13.1940    8.1730 C   0  0  0  0  0  0  0  0  0  0  0  0
    4.9660   18.6780   17.4520 H   0  0  0  0  0  0  0  0  0  0  0  0
    4.4650   18.5020   15.8530 H   0  0  0  0  0  0  0  0  0  0  0  0
    0.6670   16.9590   20.8910 H   0  0  0  0  0  0  0  0  0  0  0  0
    1.2890   15.3840   20.4590 H   0  0  0  0  0  0  0  0  0  0  0  0
    2.3730   16.6160   21.0070 H   0  0  0  0  0  0  0  0  0  0  0  0
   -0.9890   16.0990   19.2400 H   0  0  0  0  0  0  0  0  0  0  0  0
   -1.2760   15.9500   17.5330 H   0  0  0  0  0  0  0  0  0  0  0  0
   -0.3290   14.7450   18.3610 H   0  0  0  0  0  0  0  0  0  0  0  0
    2.8850   20.5950   16.3940 H   0  0  0  0  0  0  0  0  0  0  0  0
    3.4620   21.9240   18.1560 H   0  0  0  0  0  0  0  0  0  0  0  0
    4.0480   20.4350   18.9110 H   0  0  0  0  0  0  0  0  0  0  0  0
    1.8100   19.7320   14.6580 H   0  0  0  0  0  0  0  0  0  0  0  0
    2.4900   19.8710   12.3110 H   0  0  0  0  0  0  0  0  0  0  0  0
    6.9940   23.2780   15.8730 H   0  0  0  0  0  0  0  0  0  0  0  0
    7.9850   21.9960   16.5190 H   0  0  0  0  0  0  0  0  0  0  0  0
    7.2810   21.8360   14.9360 H   0  0  0  0  0  0  0  0  0  0  0  0
    5.2330   23.1960   19.4550 H   0  0  0  0  0  0  0  0  0  0  0  0
    6.6890   23.4660   18.4940 H   0  0  0  0  0  0  0  0  0  0  0  0
    5.0900   23.7520   17.7910 H   0  0  0  0  0  0  0  0  0  0  0  0
    2.4430   15.3770   15.7330 H   0  0  0  0  0  0  0  0  0  0  0  0
    4.8620   17.8920    8.6650 H   0  0  0  0  0  0  0  0  0  0  0  0
    2.5180   15.2380   10.4780 H   0  0  0  0  0  0  0  0  0  0  0  0
    5.4190   14.3930   10.6930 H   0  0  0  0  0  0  0  0  0  0  0  0
    3.9920   13.3550   10.5250 H   0  0  0  0  0  0  0  0  0  0  0  0
    3.5640   14.3620    8.2750 H   0  0  0  0  0  0  0  0  0  0  0  0
    5.0590   15.8970    7.2280 H   0  0  0  0  0  0  0  0  0  0  0  0
    6.2600   15.7190    8.4540 H   0  0  0  0  0  0  0  0  0  0  0  0
    5.4090   13.2430    7.0850 H   0  0  0  0  0  0  0  0  0  0  0  0
    6.3670   13.1960    8.5870 H   0  0  0  0  0  0  0  0  0  0  0  0
    4.8600   12.2660    8.4570 H   0  0  0  0  0  0  0  0  0  0  0  0
  1  2  2  0  0  0  0
  2  3  1  0  0  0  0
  2  4  1  0  0  0  0
  3  5  2  0  0  0  0
  3 10  1  0  0  0  0
  4  6  1  0  0  0  0
  4  9  1  0  0  0  0
  5  7  1  0  0  0  0
  5 11  1  0  0  0  0
  6  7  2  0  0  0  0
  6  8  1  0  0  0  0
  8 14  1  0  0  0  0
  8 19  2  0  0  0  0
  9 12  1  0  0  0  0
  9 38  1  0  0  0  0
  9 39  1  0  0  0  0
 10 40  1  0  0  0  0
 10 41  1  0  0  0  0
 10 42  1  0  0  0  0
 11 43  1  0  0  0  0
 11 44  1  0  0  0  0
 11 45  1  0  0  0  0
 12 13  1  0  0  0  0
 12 15  1  0  0  0  0
 12 46  1  0  0  0  0
 13 20  1  0  0  0  0
 13 47  1  0  0  0  0
 13 48  1  0  0  0  0
 14 16  2  0  0  0  0
 14 49  1  0  0  0  0
 15 18  2  0  0  0  0
 15 21  1  0  0  0  0
 16 17  1  0  0  0  0
 16 50  1  0  0  0  0
 17 24  1  0  0  0  0
 17 30  2  0  0  0  0
 19 25  1  0  0  0  0
 19 30  1  0  0  0  0
 20 21  1  0  0  0  0
 20 23  1  0  0  0  0
 20 27  1  0  0  0  0
 21 22  1  0  0  0  0
 22 51  1  0  0  0  0
 22 52  1  0  0  0  0
 22 53  1  0  0  0  0
 23 54  1  0  0  0  0
 23 55  1  0  0  0  0
 23 56  1  0  0  0  0
 24 26  1  0  0  0  0
 25 57  1  0  0  0  0
 26 28  2  0  0  0  0
 26 29  1  0  0  0  0
 27 32  2  0  0  0  0
 27 34  1  0  0  0  0
 28 36  1  0  0  0  0
 28 58  1  0  0  0  0
 29 31  1  0  0  0  0
 29 33  1  0  0  0  0
 29 59  1  0  0  0  0
 30 31  1  0  0  0  0
 33 35  1  0  0  0  0
 33 60  1  0  0  0  0
 33 61  1  0  0  0  0
 35 36  1  0  0  0  0
 35 37  1  0  0  0  0
 35 62  1  0  0  0  0
 36 63  1  0  0  0  0
 36 64  1  0  0  0  0
 37 65  1  0  0  0  0
 37 66  1  0  0  0  0
 37 67  1  0  0  0  0
M  CHG  1  34  -1
M  END
> <rseq>
1

> <mseq>
484

> <S>
-7.249569

> <rmsd_refine>
1.331273

> <E_conf>
-22.56723

> <E_score1>
-14.03539

> <E_refine>
-41.7829

> <E_score2>
-7.249569

>  <$File>
outputs/pdb_4j58_cleaned.pdb_2024_06_17__22_47_40_V2_BS398_MIN1_/SDF/sdf_db.sdf

> <Rec_index>
1

>  <PLIF_raw>
[[34,34],[1866,1872],[125,125],[7,7],[1.136767801,1.014830984]]

> <FP:PLIF>
13

>  <PLIF_ligidx>
[[34,34]]

$$$$
484
  MOE2022           3D

 64 68  0  0  1  0  0  0  0  0999 V2000
    2.3060   16.2980   20.6510 C   0  0  0  0  0  0  0  0  0  0  0  0
    1.0040   15.8350   20.7740 C   0  0  0  0  0  0  0  0  0  0  0  0
    2.7010   16.9540   19.4920 C   0  0  0  0  0  0  0  0  0  0  0  0
    0.0990   16.0130   19.7350 C   0  0  0  0  0  0  0  0  0  0  0  0
    0.4940   16.6720   18.5740 C   0  0  0  0  0  0  0  0  0  0  0  0
    1.7950   17.1580   18.4470 C   0  0  0  0  0  0  0  0  0  0  0  0
    2.2060   17.8820   17.1740 C   0  0  1  0  0  0  0  0  0  0  0  0
    3.1970   18.9270   17.4720 N   0  0  0  0  0  0  0  0  0  0  0  0
    2.6580   16.8980   16.0980 C   0  0  0  0  0  0  0  0  0  0  0  0
    4.0160   19.5650   16.5710 C   0  0  0  0  0  0  0  0  0  0  0  0
    1.9650   16.9180   14.9510 N   0  0  0  0  0  0  0  0  0  0  0  0
    3.7150   19.5220   15.3790 O   0  0  0  0  0  0  0  0  0  0  0  0
    5.2110   20.2370   17.0930 C   0  0  0  0  0  0  0  0  0  0  0  0
    3.6330   16.1630   16.2520 O   0  0  0  0  0  0  0  0  0  0  0  0
    2.3970   16.2490   13.7330 C   0  0  1  0  0  0  0  0  0  0  0  0
    1.9060   14.8180   13.6360 C   0  0  0  0  0  0  0  0  0  0  0  0
    1.8550   16.9010   12.4680 C   0  0  0  0  0  0  0  0  0  0  0  0
    5.6900   19.9200   18.3780 C   0  0  0  0  0  0  0  0  0  0  0  0
    1.5890   14.5960   12.1470 C   0  0  1  0  0  0  0  0  0  0  0  0
    5.9400   21.1850   16.3370 C   0  0  0  0  0  0  0  0  0  0  0  0
    1.8230   15.8730   11.4180 N   0  0  0  0  0  0  0  0  0  0  0  0
    6.8550   20.5010   18.8570 C   0  0  0  0  0  0  0  0  0  0  0  0
    5.5140   21.5780   15.0990 O   0  0  0  0  0  0  0  0  0  0  0  0
    2.9520   15.9490   10.5400 C   0  0  0  0  0  0  0  0  0  0  0  0
    7.5790   21.4030   18.0720 C   0  0  0  0  0  0  0  0  0  0  0  0
    8.7490   21.9310   18.5360 O   0  0  0  0  0  0  0  0  0  0  0  0
    7.2820   20.1740   20.1130 O   0  0  0  0  0  0  0  0  0  0  0  0
    7.1200   21.7600   16.8110 C   0  0  0  0  0  0  0  0  0  0  0  0
    3.1200   17.0520    9.6810 C   0  0  0  0  0  0  0  0  0  0  0  0
    3.9220   14.9240   10.5450 C   0  0  0  0  0  0  0  0  0  0  0  0
    2.0570   18.1360    9.5320 C   0  0  0  0  0  0  0  0  0  0  0  0
    4.3060   17.1320    8.9400 C   0  0  0  0  0  0  0  0  0  0  0  0
    3.7230   13.7680   11.2710 O   0  0  0  0  0  0  0  0  0  0  0  0
    5.0960   15.0350    9.8090 C   0  0  0  0  0  0  0  0  0  0  0  0
    4.5250   18.2000    8.1100 O   0  0  0  0  0  0  0  0  0  0  0  0
    5.2940   16.1510    9.0040 C   0  0  0  0  0  0  0  0  0  0  0  0
    2.3530   13.4160   11.5320 C   0  0  0  0  0  0  0  0  0  0  0  0
    2.9980   16.1500   21.4390 H   0  0  0  0  0  0  0  0  0  0  0  0
    0.7080   15.3470   21.6610 H   0  0  0  0  0  0  0  0  0  0  0  0
    3.6970   17.2990   19.4160 H   0  0  0  0  0  0  0  0  0  0  0  0
   -0.8930   15.6530   19.8260 H   0  0  0  0  0  0  0  0  0  0  0  0
   -0.2030   16.8050   17.7870 H   0  0  0  0  0  0  0  0  0  0  0  0
    1.3280   18.3960   16.8050 H   0  0  0  0  0  0  0  0  0  0  0  0
    3.3760   19.0800   18.4760 H   0  0  0  0  0  0  0  0  0  0  0  0
    1.1700   17.5350   14.8760 H   0  0  0  0  0  0  0  0  0  0  0  0
    3.4850   16.2560   13.6550 H   0  0  0  0  0  0  0  0  0  0  0  0
    2.6760   14.1360   13.9950 H   0  0  0  0  0  0  0  0  0  0  0  0
    0.9940   14.6830   14.2200 H   0  0  0  0  0  0  0  0  0  0  0  0
    0.8470   17.2570   12.6380 H   0  0  0  0  0  0  0  0  0  0  0  0
    2.4520   17.7630   12.2040 H   0  0  0  0  0  0  0  0  0  0  0  0
    5.1770   19.2260   18.9910 H   0  0  0  0  0  0  0  0  0  0  0  0
    0.5340   14.3660   12.0750 H   0  0  0  0  0  0  0  0  0  0  0  0
    4.6740   21.1230   14.8750 H   0  0  0  0  0  0  0  0  0  0  0  0
    8.9690   21.5410   19.4070 H   0  0  0  0  0  0  0  0  0  0  0  0
    6.7330   19.4580   20.4870 H   0  0  0  0  0  0  0  0  0  0  0  0
    7.6580   22.4550   16.2200 H   0  0  0  0  0  0  0  0  0  0  0  0
    1.0740   17.7870    9.8460 H   0  0  0  0  0  0  0  0  0  0  0  0
    2.3230   19.0100   10.1270 H   0  0  0  0  0  0  0  0  0  0  0  0
    1.9570   18.4420    8.4910 H   0  0  0  0  0  0  0  0  0  0  0  0
    5.8260   14.2690    9.8500 H   0  0  0  0  0  0  0  0  0  0  0  0
    3.7620   18.8100    8.1390 H   0  0  0  0  0  0  0  0  0  0  0  0
    6.1810   16.2480    8.4320 H   0  0  0  0  0  0  0  0  0  0  0  0
    2.3210   12.5490   12.1910 H   0  0  0  0  0  0  0  0  0  0  0  0
    1.8910   13.1440   10.5820 H   0  0  0  0  0  0  0  0  0  0  0  0
  1  2  2  0  0  0  0
  1  3  1  0  0  0  0
  1 38  1  0  0  0  0
  2  4  1  0  0  0  0
  2 39  1  0  0  0  0
  3  6  2  0  0  0  0
  3 40  1  0  0  0  0
  4  5  2  0  0  0  0
  4 41  1  0  0  0  0
  5  6  1  0  0  0  0
  5 42  1  0  0  0  0
  6  7  1  0  0  0  0
  7  8  1  0  0  0  0
  7  9  1  0  0  0  0
  7 43  1  0  0  0  0
  8 10  1  0  0  0  0
  8 44  1  0  0  0  0
  9 11  1  0  0  0  0
  9 14  2  0  0  0  0
 10 12  2  0  0  0  0
 10 13  1  0  0  0  0
 11 15  1  0  0  0  0
 11 45  1  0  0  0  0
 13 18  1  0  0  0  0
 13 20  2  0  0  0  0
 15 16  1  0  0  0  0
 15 17  1  0  0  0  0
 15 46  1  0  0  0  0
 16 19  1  0  0  0  0
 16 47  1  0  0  0  0
 16 48  1  0  0  0  0
 17 21  1  0  0  0  0
 17 49  1  0  0  0  0
 17 50  1  0  0  0  0
 18 22  2  0  0  0  0
 18 51  1  0  0  0  0
 19 21  1  0  0  0  0
 19 37  1  0  0  0  0
 19 52  1  0  0  0  0
 20 23  1  0  0  0  0
 20 28  1  0  0  0  0
 21 24  1  0  0  0  0
 22 25  1  0  0  0  0
 22 27  1  0  0  0  0
 23 53  1  0  0  0  0
 24 29  2  0  0  0  0
 24 30  1  0  0  0  0
 25 26  1  0  0  0  0
 25 28  2  0  0  0  0
 26 54  1  0  0  0  0
 27 55  1  0  0  0  0
 28 56  1  0  0  0  0
 29 31  1  0  0  0  0
 29 32  1  0  0  0  0
 30 33  1  0  0  0  0
 30 34  2  0  0  0  0
 31 57  1  0  0  0  0
 31 58  1  0  0  0  0
 31 59  1  0  0  0  0
 32 35  1  0  0  0  0
 32 36  2  0  0  0  0
 33 37  1  0  0  0  0
 34 36  1  0  0  0  0
 34 60  1  0  0  0  0
 35 61  1  0  0  0  0
 36 62  1  0  0  0  0
 37 63  1  0  0  0  0
 37 64  1  0  0  0  0
M  END
> <rseq>
1

> <mseq>
485

> <S>
-7.485075

> <rmsd_refine>
1.537237

> <E_conf>
12.48922

> <E_score1>
-10.40546

> <E_refine>
-42.80354

> <E_score2>
-7.485075

>  <$File>
outputs/pdb_4j58_cleaned.pdb_2024_06_17__22_47_40_V2_BS398_MIN1_/SDF/sdf_db.sdf

> <Rec_index>
1

>  <PLIF_raw>
[[14,26,26,26,26,26,26,24,30,34,36,32,29],[954,1651,1655,1659,1657,1653,1650,823,823,823,823,823,823],[62,112,112,112,112,112,112,54,54,54,54,54,54],[2,10,10,10,10,10,10,10,10,10,10,10,10],[2.7,2.2,2.2,2.2,2.2,2.2,2.2,1.4,1.4,1.4,1.4,1.4,1.4]]

> <FP:PLIF>
2 5 20 23 15 47

>  <PLIF_ligidx>
[[24,30,34,36,32,29],[24,30,34,36,32,29],14,14,[26,26,26,26,26,26],[26,26,26,26,26,26]]

$$$$
485
  MOE2022           3D

 63 67  0  0  1  0  0  0  0  0999 V2000
    3.7380   17.9740   19.3870 O   0  0  0  0  0  0  0  0  0  0  0  0
    2.8300   17.6310   18.6230 C   0  0  0  0  0  0  0  0  0  0  0  0
    1.6930   16.8490   19.0280 C   0  0  0  0  0  0  0  0  0  0  0  0
    2.9140   17.9890   17.2700 N   0  0  0  0  0  0  0  0  0  0  0  0
    0.7540   16.5090   18.1000 C   0  0  0  0  0  0  0  0  0  0  0  0
    1.9570   17.5080   16.3580 C   0  0  0  0  0  0  0  0  0  0  0  0
    0.9200   16.8410   16.7770 N   0  0  0  0  0  0  0  0  0  0  0  0
    2.2020   17.6700   14.9340 C   0  0  0  0  0  0  0  0  0  0  0  0
    4.0610   18.8210   16.7900 C   0  0  0  0  0  0  0  0  0  0  0  0
    1.5720   16.4010   20.4770 C   0  0  0  0  0  0  0  0  0  0  0  0
   -0.4860   15.7030   18.4330 C   0  0  0  0  0  0  0  0  0  0  0  0
    3.8070   20.3410   16.6850 C   0  0  1  0  0  0  0  0  0  0  0  0
    4.0610   21.0920   17.9930 C   0  0  0  0  0  0  0  0  0  0  0  0
    1.8710   18.8500   14.2430 C   0  0  0  0  0  0  0  0  0  0  0  0
    4.8240   20.9960   15.7620 C   0  0  0  0  0  0  0  0  0  0  0  0
    2.1540   18.9860   12.8850 C   0  0  0  0  0  0  0  0  0  0  0  0
    2.7530   17.9300   12.1950 C   0  0  0  0  0  0  0  0  0  0  0  0
    4.7450   20.9360   14.5360 O   0  0  0  0  0  0  0  0  0  0  0  0
    2.7790   16.6110   14.2140 C   0  0  0  0  0  0  0  0  0  0  0  0
    5.4920   21.6680   17.9090 C   0  0  1  0  0  0  0  0  0  0  0  0
    5.7800   21.6230   16.4600 N   0  0  0  0  0  0  0  0  0  0  0  0
    6.9440   22.2680   15.8470 C   0  0  0  0  0  0  0  0  0  0  0  0
    5.5050   23.1350   18.3910 C   0  0  0  0  0  0  0  0  0  0  0  0
    3.0840   18.0870   10.8560 O   0  0  0  0  0  0  0  0  0  0  0  0
    3.0740   15.4360   14.8520 O   0  0  0  0  0  0  0  0  0  0  0  0
    3.6820   17.0410   10.1770 C   0  0  0  0  0  0  0  0  0  0  0  0
    6.4520   20.8090   18.7600 C   0  0  0  0  0  0  0  0  0  0  0  0
    4.4970   17.2880    9.1360 C   0  0  0  0  0  0  0  0  0  0  0  0
    3.3830   15.6570   10.7440 C   0  0  2  0  0  0  0  0  0  0  0  0
    3.0480   16.7330   12.8540 C   0  0  0  0  0  0  0  0  0  0  0  0
    3.5950   15.6700   12.1610 O   0  0  0  0  0  0  0  0  0  0  0  0
    7.2850   20.0740   18.1840 O   0  0  0  0  0  0  0  0  0  0  0  0
    4.1670   14.5170   10.0650 C   0  0  0  0  0  0  0  0  0  0  0  0
    5.4380   15.0120    9.4210 C   0  0  0  0  0  0  0  0  0  0  0  0
    6.3370   20.8720   20.0080 O   0  5  0  0  0  0  0  0  0  0  0  0
    6.5170   14.6320    9.7810 O   0  0  0  0  0  0  0  0  0  0  0  0
    5.2770   16.1750    8.4680 C   0  0  0  0  0  0  0  0  0  0  0  0
    4.9300   18.6780   17.4130 H   0  0  0  0  0  0  0  0  0  0  0  0
    4.3970   18.4580   15.8290 H   0  0  0  0  0  0  0  0  0  0  0  0
    0.7620   16.9120   20.9760 H   0  0  0  0  0  0  0  0  0  0  0  0
    1.3830   15.3390   20.5380 H   0  0  0  0  0  0  0  0  0  0  0  0
    2.4730   16.5830   21.0450 H   0  0  0  0  0  0  0  0  0  0  0  0
   -0.9520   16.0370   19.3480 H   0  0  0  0  0  0  0  0  0  0  0  0
   -1.2310   15.7770   17.6520 H   0  0  0  0  0  0  0  0  0  0  0  0
   -0.2470   14.6550   18.5500 H   0  0  0  0  0  0  0  0  0  0  0  0
    2.7950   20.5270   16.3310 H   0  0  0  0  0  0  0  0  0  0  0  0
    3.3330   21.9000   18.0740 H   0  0  0  0  0  0  0  0  0  0  0  0
    3.9590   20.4400   18.8520 H   0  0  0  0  0  0  0  0  0  0  0  0
    1.4050   19.6480   14.7600 H   0  0  0  0  0  0  0  0  0  0  0  0
    1.9200   19.8870   12.3780 H   0  0  0  0  0  0  0  0  0  0  0  0
    6.8110   23.3390   15.7860 H   0  0  0  0  0  0  0  0  0  0  0  0
    7.8420   22.0830   16.4210 H   0  0  0  0  0  0  0  0  0  0  0  0
    7.1270   21.9060   14.8450 H   0  0  0  0  0  0  0  0  0  0  0  0
    5.0980   23.2090   19.3970 H   0  0  0  0  0  0  0  0  0  0  0  0
    6.5240   23.5240   18.4050 H   0  0  0  0  0  0  0  0  0  0  0  0
    4.9040   23.7670   17.7360 H   0  0  0  0  0  0  0  0  0  0  0  0
    2.6950   15.4260   15.7540 H   0  0  0  0  0  0  0  0  0  0  0  0
    4.6530   18.2720    8.7730 H   0  0  0  0  0  0  0  0  0  0  0  0
    2.3280   15.4600   10.6070 H   0  0  0  0  0  0  0  0  0  0  0  0
    4.3620   13.7160   10.7670 H   0  0  0  0  0  0  0  0  0  0  0  0
    3.5400   14.0970    9.2900 H   0  0  0  0  0  0  0  0  0  0  0  0
    4.7520   15.8580    7.5780 H   0  0  0  0  0  0  0  0  0  0  0  0
    6.2450   16.5320    8.1450 H   0  0  0  0  0  0  0  0  0  0  0  0
  1  2  2  0  0  0  0
  2  3  1  0  0  0  0
  2  4  1  0  0  0  0
  3  5  2  0  0  0  0
  3 10  1  0  0  0  0
  4  6  1  0  0  0  0
  4  9  1  0  0  0  0
  5  7  1  0  0  0  0
  5 11  1  0  0  0  0
  6  7  2  0  0  0  0
  6  8  1  0  0  0  0
  8 14  1  0  0  0  0
  8 19  2  0  0  0  0
  9 12  1  0  0  0  0
  9 38  1  0  0  0  0
  9 39  1  0  0  0  0
 10 40  1  0  0  0  0
 10 41  1  0  0  0  0
 10 42  1  0  0  0  0
 11 43  1  0  0  0  0
 11 44  1  0  0  0  0
 11 45  1  0  0  0  0
 12 13  1  0  0  0  0
 12 15  1  0  0  0  0
 12 46  1  0  0  0  0
 13 20  1  0  0  0  0
 13 47  1  0  0  0  0
 13 48  1  0  0  0  0
 14 16  2  0  0  0  0
 14 49  1  0  0  0  0
 15 18  2  0  0  0  0
 15 21  1  0  0  0  0
 16 17  1  0  0  0  0
 16 50  1  0  0  0  0
 17 24  1  0  0  0  0
 17 30  2  0  0  0  0
 19 25  1  0  0  0  0
 19 30  1  0  0  0  0
 20 21  1  0  0  0  0
 20 23  1  0  0  0  0
 20 27  1  0  0  0  0
 21 22  1  0  0  0  0
 22 51  1  0  0  0  0
 22 52  1  0  0  0  0
 22 53  1  0  0  0  0
 23 54  1  0  0  0  0
 23 55  1  0  0  0  0
 23 56  1  0  0  0  0
 24 26  1  0  0  0  0
 25 57  1  0  0  0  0
 26 28  2  0  0  0  0
 26 29  1  0  0  0  0
 27 32  2  0  0  0  0
 27 35  1  0  0  0  0
 28 37  1  0  0  0  0
 28 58  1  0  0  0  0
 29 31  1  0  0  0  0
 29 33  1  0  0  0  0
 29 59  1  0  0  0  0
 30 31  1  0  0  0  0
 33 34  1  0  0  0  0
 33 60  1  0  0  0  0
 33 61  1  0  0  0  0
 34 36  2  0  0  0  0
 34 37  1  0  0  0  0
 37 62  1  0  0  0  0
 37 63  1  0  0  0  0
M  CHG  1  35  -1
M  END
> <rseq>
1

> <mseq>
486

> <S>
-7.18604

> <rmsd_refine>
1.108382

> <E_conf>
-41.84998

> <E_score1>
-13.84774

> <E_refine>
-40.99932

> <E_score2>
-7.18604

>  <$File>
outputs/pdb_4j58_cleaned.pdb_2024_06_17__22_47_40_V2_BS398_MIN1_/SDF/sdf_db.sdf

> <Rec_index>
1

>  <PLIF_raw>
[[35,35],[1866,1872],[125,125],[7,7],[1.009342111,1.046849691]]

> <FP:PLIF>
13

>  <PLIF_ligidx>
[[35,35]]

$$$$
486
  MOE2022           3D

 64 67  0  0  1  0  0  0  0  0999 V2000
    2.0350   16.3060   20.6900 C   0  0  0  0  0  0  0  0  0  0  0  0
    0.7020   15.9190   20.6560 C   0  0  0  0  0  0  0  0  0  0  0  0
    2.6080   16.9150   19.5790 C   0  0  0  0  0  0  0  0  0  0  0  0
   -0.0550   16.1240   19.5100 C   0  0  0  0  0  0  0  0  0  0  0  0
    0.5160   16.7390   18.4010 C   0  0  0  0  0  0  0  0  0  0  0  0
    1.8500   17.1470   18.4260 C   0  0  0  0  0  0  0  0  0  0  0  0
    2.4360   17.7950   17.1790 C   0  0  1  0  0  0  0  0  0  0  0  0
    3.6270   18.5890   17.4800 N   0  0  0  0  0  0  0  0  0  0  0  0
    2.6870   16.7390   16.1130 C   0  0  0  0  0  0  0  0  0  0  0  0
    4.0590   19.6910   16.7880 C   0  0  0  0  0  0  0  0  0  0  0  0
    1.8220   16.7170   15.0900 N   0  0  0  0  0  0  0  0  0  0  0  0
    3.4260   20.0410   15.7940 O   0  0  0  0  0  0  0  0  0  0  0  0
    5.2700   20.3520   17.2820 C   0  0  0  0  0  0  0  0  0  0  0  0
    3.5840   15.9020   16.2240 O   0  0  0  0  0  0  0  0  0  0  0  0
    1.6510   15.5670   14.2120 C   0  0  1  0  0  0  0  0  0  0  0  0
    0.2930   15.6430   13.5000 C   0  0  0  0  0  0  0  0  0  0  0  0
    2.6680   15.5700   13.0650 C   0  0  0  0  0  0  0  0  0  0  0  0
    5.6770   20.1550   18.6140 C   0  0  0  0  0  0  0  0  0  0  0  0
    0.6220   16.3410   12.1830 C   0  0  0  0  0  0  0  0  0  0  0  0
    6.0810   21.1680   16.4620 C   0  0  0  0  0  0  0  0  0  0  0  0
    1.9790   15.9640   11.8430 N   0  0  0  0  0  0  0  0  0  0  0  0
    6.8780   20.6800   19.0670 C   0  0  0  0  0  0  0  0  0  0  0  0
    5.6950   21.4920   15.1920 O   0  0  0  0  0  0  0  0  0  0  0  0
    7.2070   20.4740   20.3770 O   0  0  0  0  0  0  0  0  0  0  0  0
    7.7110   21.4040   18.2060 C   0  0  0  0  0  0  0  0  0  0  0  0
    8.9350   21.8570   18.6160 O   0  0  0  0  0  0  0  0  0  0  0  0
    7.3040   21.6730   16.9050 C   0  0  0  0  0  0  0  0  0  0  0  0
    2.4040   15.6640   10.5650 C   0  0  0  0  0  0  0  0  0  0  0  0
    1.7200   16.0250    9.6100 O   0  0  0  0  0  0  0  0  0  0  0  0
    3.6440   14.9180   10.4040 C   0  0  0  0  0  0  0  0  0  0  0  0
    4.8360   15.6170   10.1650 C   0  0  0  0  0  0  0  0  0  0  0  0
    3.6680   13.5130   10.5150 C   0  0  0  0  0  0  0  0  0  0  0  0
    2.3940   12.7190   10.7420 C   0  0  0  0  0  0  0  0  0  0  0  0
    4.8830   12.8390   10.4390 C   0  0  0  0  0  0  0  0  0  0  0  0
    6.0580   13.5560   10.2360 C   0  0  0  0  0  0  0  0  0  0  0  0
    7.2400   12.8910   10.2000 O   0  0  0  0  0  0  0  0  0  0  0  0
    6.0440   14.9400   10.0830 C   0  0  0  0  0  0  0  0  0  0  0  0
    2.6150   16.1390   21.5600 H   0  0  0  0  0  0  0  0  0  0  0  0
    0.2620   15.4720   21.5030 H   0  0  0  0  0  0  0  0  0  0  0  0
    3.6270   17.1970   19.6250 H   0  0  0  0  0  0  0  0  0  0  0  0
   -1.0690   15.8200   19.4820 H   0  0  0  0  0  0  0  0  0  0  0  0
   -0.0710   16.8940   17.5330 H   0  0  0  0  0  0  0  0  0  0  0  0
    1.6840   18.4770   16.8040 H   0  0  0  0  0  0  0  0  0  0  0  0
    4.1870   18.2750   18.2850 H   0  0  0  0  0  0  0  0  0  0  0  0
    1.1320   17.4500   15.0200 H   0  0  0  0  0  0  0  0  0  0  0  0
    1.7230   14.6430   14.7860 H   0  0  0  0  0  0  0  0  0  0  0  0
   -0.0520   14.6330   13.2830 H   0  0  0  0  0  0  0  0  0  0  0  0
   -0.4590   16.1850   14.0750 H   0  0  0  0  0  0  0  0  0  0  0  0
    3.4830   16.2630   13.2820 H   0  0  0  0  0  0  0  0  0  0  0  0
    3.0780   14.5650   12.9720 H   0  0  0  0  0  0  0  0  0  0  0  0
    5.0740   19.6050   19.2900 H   0  0  0  0  0  0  0  0  0  0  0  0
   -0.0910   16.0410   11.4140 H   0  0  0  0  0  0  0  0  0  0  0  0
    0.5730   17.4210   12.3230 H   0  0  0  0  0  0  0  0  0  0  0  0
    4.7900   21.1510   15.0220 H   0  0  0  0  0  0  0  0  0  0  0  0
    8.0890   20.8400   20.5840 H   0  0  0  0  0  0  0  0  0  0  0  0
    9.1870   21.5100   19.4930 H   0  0  0  0  0  0  0  0  0  0  0  0
    7.9130   22.2530   16.2600 H   0  0  0  0  0  0  0  0  0  0  0  0
    4.8140   16.6710   10.0560 H   0  0  0  0  0  0  0  0  0  0  0  0
    2.5350   11.6680   10.4880 H   0  0  0  0  0  0  0  0  0  0  0  0
    2.0870   12.7750   11.7870 H   0  0  0  0  0  0  0  0  0  0  0  0
    1.5810   13.0970   10.1220 H   0  0  0  0  0  0  0  0  0  0  0  0
    4.9200   11.7860   10.5390 H   0  0  0  0  0  0  0  0  0  0  0  0
    7.1250   11.9590   10.4700 H   0  0  0  0  0  0  0  0  0  0  0  0
    6.9430   15.4700    9.9140 H   0  0  0  0  0  0  0  0  0  0  0  0
  1  2  2  0  0  0  0
  1  3  1  0  0  0  0
  1 38  1  0  0  0  0
  2  4  1  0  0  0  0
  2 39  1  0  0  0  0
  3  6  2  0  0  0  0
  3 40  1  0  0  0  0
  4  5  2  0  0  0  0
  4 41  1  0  0  0  0
  5  6  1  0  0  0  0
  5 42  1  0  0  0  0
  6  7  1  0  0  0  0
  7  8  1  0  0  0  0
  7  9  1  0  0  0  0
  7 43  1  0  0  0  0
  8 10  1  0  0  0  0
  8 44  1  0  0  0  0
  9 11  1  0  0  0  0
  9 14  2  0  0  0  0
 10 12  2  0  0  0  0
 10 13  1  0  0  0  0
 11 15  1  0  0  0  0
 11 45  1  0  0  0  0
 13 18  1  0  0  0  0
 13 20  2  0  0  0  0
 15 16  1  0  0  0  0
 15 17  1  0  0  0  0
 15 46  1  0  0  0  0
 16 19  1  0  0  0  0
 16 47  1  0  0  0  0
 16 48  1  0  0  0  0
 17 21  1  0  0  0  0
 17 49  1  0  0  0  0
 17 50  1  0  0  0  0
 18 22  2  0  0  0  0
 18 51  1  0  0  0  0
 19 21  1  0  0  0  0
 19 52  1  0  0  0  0
 19 53  1  0  0  0  0
 20 23  1  0  0  0  0
 20 27  1  0  0  0  0
 21 28  1  0  0  0  0
 22 24  1  0  0  0  0
 22 25  1  0  0  0  0
 23 54  1  0  0  0  0
 24 55  1  0  0  0  0
 25 26  1  0  0  0  0
 25 27  2  0  0  0  0
 26 56  1  0  0  0  0
 27 57  1  0  0  0  0
 28 29  2  0  0  0  0
 28 30  1  0  0  0  0
 30 31  2  0  0  0  0
 30 32  1  0  0  0  0
 31 37  1  0  0  0  0
 31 58  1  0  0  0  0
 32 33  1  0  0  0  0
 32 34  2  0  0  0  0
 33 59  1  0  0  0  0
 33 60  1  0  0  0  0
 33 61  1  0  0  0  0
 34 35  1  0  0  0  0
 34 62  1  0  0  0  0
 35 36  1  0  0  0  0
 35 37  2  0  0  0  0
 36 63  1  0  0  0  0
 37 64  1  0  0  0  0
M  END
> <rseq>
1

> <mseq>
487

> <S>
-7.830344

> <rmsd_refine>
1.967288

> <E_conf>
2.726645

> <E_score1>
-9.920321

> <E_refine>
-46.10091

> <E_score2>
-7.830344

>  <$File>
outputs/pdb_4j58_cleaned.pdb_2024_06_17__22_47_40_V2_BS398_MIN1_/SDF/sdf_db.sdf

> <Rec_index>
1

>  <PLIF_raw>
[[14,26,26,26,26,26,26],[954,1651,1655,1659,1657,1653,1650],[62,112,112,112,112,112,112],[2,10,10,10,10,10,10],[1.9,1.6,1.6,1.6,1.6,1.6,1.6]]

> <FP:PLIF>
20 23 15 47

>  <PLIF_ligidx>
[14,14,[26,26,26,26,26,26],[26,26,26,26,26,26]]

$$$$
487
  MOE2022           3D

 65 69  0  0  1  0  0  0  0  0999 V2000
    3.7120   17.9610   19.3790 O   0  0  0  0  0  0  0  0  0  0  0  0
    2.8040   17.6410   18.6040 C   0  0  0  0  0  0  0  0  0  0  0  0
    1.6470   16.8800   18.9930 C   0  0  0  0  0  0  0  0  0  0  0  0
    2.9100   18.0030   17.2540 N   0  0  0  0  0  0  0  0  0  0  0  0
    0.7150   16.5590   18.0530 C   0  0  0  0  0  0  0  0  0  0  0  0
    1.9650   17.5260   16.3250 C   0  0  0  0  0  0  0  0  0  0  0  0
    0.9080   16.8840   16.7310 N   0  0  0  0  0  0  0  0  0  0  0  0
    2.2520   17.6470   14.9040 C   0  0  0  0  0  0  0  0  0  0  0  0
    4.0710   18.8270   16.7950 C   0  0  0  0  0  0  0  0  0  0  0  0
    1.5030   16.4290   20.4390 C   0  0  0  0  0  0  0  0  0  0  0  0
   -0.5440   15.7730   18.3640 C   0  0  0  0  0  0  0  0  0  0  0  0
    3.8380   20.3520   16.7080 C   0  0  1  0  0  0  0  0  0  0  0  0
    4.1040   21.0860   18.0240 C   0  0  0  0  0  0  0  0  0  0  0  0
    2.0620   18.8400   14.1840 C   0  0  0  0  0  0  0  0  0  0  0  0
    4.8640   21.0020   15.7910 C   0  0  0  0  0  0  0  0  0  0  0  0
    2.4190   18.9280   12.8390 C   0  0  0  0  0  0  0  0  0  0  0  0
    2.9480   17.8100   12.1910 C   0  0  0  0  0  0  0  0  0  0  0  0
    4.7820   20.9570   14.5640 O   0  0  0  0  0  0  0  0  0  0  0  0
    2.7470   16.5260   14.2170 C   0  0  0  0  0  0  0  0  0  0  0  0
    5.5390   21.6500   17.9420 C   0  0  1  0  0  0  0  0  0  0  0  0
    5.8310   21.6040   16.4940 N   0  0  0  0  0  0  0  0  0  0  0  0
    7.0050   22.2380   15.8860 C   0  0  0  0  0  0  0  0  0  0  0  0
    5.5630   23.1170   18.4210 C   0  0  0  0  0  0  0  0  0  0  0  0
    3.3700   17.9170   10.8790 O   0  0  0  0  0  0  0  0  0  0  0  0
    2.8980   15.3360   14.8750 O   0  0  0  0  0  0  0  0  0  0  0  0
    3.9150   16.8330   10.2120 C   0  0  0  0  0  0  0  0  0  0  0  0
    6.4900   20.7850   18.7970 C   0  0  0  0  0  0  0  0  0  0  0  0
    4.6390   17.0350    9.0970 C   0  0  0  0  0  0  0  0  0  0  0  0
    3.6370   15.4580   10.7950 C   0  0  2  0  0  0  0  0  0  0  0  0
    3.0890   16.6020   12.8720 C   0  0  0  0  0  0  0  0  0  0  0  0
    3.5740   15.4870   12.2270 O   0  0  0  0  0  0  0  0  0  0  0  0
    7.3180   20.0410   18.2250 O   0  0  0  0  0  0  0  0  0  0  0  0
    6.3710   20.8500   20.0440 O   0  5  0  0  0  0  0  0  0  0  0  0
    4.6710   14.4240   10.3290 C   0  0  0  0  0  0  0  0  0  0  0  0
    5.3320   15.9010    8.3610 C   0  0  0  0  0  0  0  0  0  0  0  0
    4.8700   14.4990    8.8130 C   0  0  1  0  0  0  0  0  0  0  0  0
    5.8060   13.5170    8.4230 O   0  0  0  0  0  0  0  0  0  0  0  0
    4.9320   18.6670   17.4260 H   0  0  0  0  0  0  0  0  0  0  0  0
    4.4140   18.4730   15.8340 H   0  0  0  0  0  0  0  0  0  0  0  0
    0.6880   16.9440   20.9280 H   0  0  0  0  0  0  0  0  0  0  0  0
    1.3050   15.3680   20.4940 H   0  0  0  0  0  0  0  0  0  0  0  0
    2.3960   16.6030   21.0220 H   0  0  0  0  0  0  0  0  0  0  0  0
   -0.9890   16.0690   19.3030 H   0  0  0  0  0  0  0  0  0  0  0  0
   -1.2970   15.9110   17.6000 H   0  0  0  0  0  0  0  0  0  0  0  0
   -0.3340   14.7140   18.4200 H   0  0  0  0  0  0  0  0  0  0  0  0
    2.8280   20.5560   16.3590 H   0  0  0  0  0  0  0  0  0  0  0  0
    3.3820   21.8990   18.1160 H   0  0  0  0  0  0  0  0  0  0  0  0
    3.9980   20.4250   18.8760 H   0  0  0  0  0  0  0  0  0  0  0  0
    1.6480   19.6860   14.6680 H   0  0  0  0  0  0  0  0  0  0  0  0
    2.2950   19.8390   12.3120 H   0  0  0  0  0  0  0  0  0  0  0  0
    6.8830   23.3100   15.8260 H   0  0  0  0  0  0  0  0  0  0  0  0
    7.8980   22.0420   16.4630 H   0  0  0  0  0  0  0  0  0  0  0  0
    7.1870   21.8750   14.8840 H   0  0  0  0  0  0  0  0  0  0  0  0
    5.1480   23.1970   19.4230 H   0  0  0  0  0  0  0  0  0  0  0  0
    6.5850   23.4970   18.4430 H   0  0  0  0  0  0  0  0  0  0  0  0
    4.9730   23.7540   17.7610 H   0  0  0  0  0  0  0  0  0  0  0  0
    2.4820   15.3720   15.7610 H   0  0  0  0  0  0  0  0  0  0  0  0
    4.7930   18.0090    8.7100 H   0  0  0  0  0  0  0  0  0  0  0  0
    2.6600   15.1480   10.4490 H   0  0  0  0  0  0  0  0  0  0  0  0
    5.6210   14.6230   10.8280 H   0  0  0  0  0  0  0  0  0  0  0  0
    4.3280   13.4270   10.6100 H   0  0  0  0  0  0  0  0  0  0  0  0
    5.1820   16.0060    7.2950 H   0  0  0  0  0  0  0  0  0  0  0  0
    6.3960   16.0010    8.5220 H   0  0  0  0  0  0  0  0  0  0  0  0
    3.9150   14.2870    8.3300 H   0  0  0  0  0  0  0  0  0  0  0  0
    6.6300   13.6830    8.8880 H   0  0  0  0  0  0  0  0  0  0  0  0
  1  2  2  0  0  0  0
  2  3  1  0  0  0  0
  2  4  1  0  0  0  0
  3  5  2  0  0  0  0
  3 10  1  0  0  0  0
  4  6  1  0  0  0  0
  4  9  1  0  0  0  0
  5  7  1  0  0  0  0
  5 11  1  0  0  0  0
  6  7  2  0  0  0  0
  6  8  1  0  0  0  0
  8 14  1  0  0  0  0
  8 19  2  0  0  0  0
  9 12  1  0  0  0  0
  9 38  1  0  0  0  0
  9 39  1  0  0  0  0
 10 40  1  0  0  0  0
 10 41  1  0  0  0  0
 10 42  1  0  0  0  0
 11 43  1  0  0  0  0
 11 44  1  0  0  0  0
 11 45  1  0  0  0  0
 12 13  1  0  0  0  0
 12 15  1  0  0  0  0
 12 46  1  0  0  0  0
 13 20  1  0  0  0  0
 13 47  1  0  0  0  0
 13 48  1  0  0  0  0
 14 16  2  0  0  0  0
 14 49  1  0  0  0  0
 15 18  2  0  0  0  0
 15 21  1  0  0  0  0
 16 17  1  0  0  0  0
 16 50  1  0  0  0  0
 17 24  1  0  0  0  0
 17 30  2  0  0  0  0
 19 25  1  0  0  0  0
 19 30  1  0  0  0  0
 20 21  1  0  0  0  0
 20 23  1  0  0  0  0
 20 27  1  0  0  0  0
 21 22  1  0  0  0  0
 22 51  1  0  0  0  0
 22 52  1  0  0  0  0
 22 53  1  0  0  0  0
 23 54  1  0  0  0  0
 23 55  1  0  0  0  0
 23 56  1  0  0  0  0
 24 26  1  0  0  0  0
 25 57  1  0  0  0  0
 26 28  2  0  0  0  0
 26 29  1  0  0  0  0
 27 32  2  0  0  0  0
 27 33  1  0  0  0  0
 28 35  1  0  0  0  0
 28 58  1  0  0  0  0
 29 31  1  0  0  0  0
 29 34  1  0  0  0  0
 29 59  1  0  0  0  0
 30 31  1  0  0  0  0
 34 36  1  0  0  0  0
 34 60  1  0  0  0  0
 34 61  1  0  0  0  0
 35 36  1  0  0  0  0
 35 62  1  0  0  0  0
 35 63  1  0  0  0  0
 36 37  1  0  0  0  0
 36 64  1  0  0  0  0
 37 65  1  0  0  0  0
M  CHG  1  33  -1
M  END
> <rseq>
1

> <mseq>
488

> <S>
-7.22366

> <rmsd_refine>
1.257295

> <E_conf>
-37.94357

> <E_score1>
-14.03946

> <E_refine>
-41.1776

> <E_score2>
-7.22366

>  <$File>
outputs/pdb_4j58_cleaned.pdb_2024_06_17__22_47_40_V2_BS398_MIN1_/SDF/sdf_db.sdf

> <Rec_index>
1

>  <PLIF_raw>
[[33,33],[1866,1872],[125,125],[7,7],[1.061602619,1.029140085]]

> <FP:PLIF>
13

>  <PLIF_ligidx>
[[33,33]]

$$$$
488
  MOE2022           3D

 60 64  0  0  1  0  0  0  0  0999 V2000
    3.6610   17.9470   19.2250 O   0  0  0  0  0  0  0  0  0  0  0  0
    2.7370   17.5010   18.5290 C   0  0  0  0  0  0  0  0  0  0  0  0
    1.6660   16.6950   19.0390 C   0  0  0  0  0  0  0  0  0  0  0  0
    2.7260   17.7910   17.1580 N   0  0  0  0  0  0  0  0  0  0  0  0
    0.6810   16.2770   18.1890 C   0  0  0  0  0  0  0  0  0  0  0  0
    1.7320   17.2300   16.3250 C   0  0  0  0  0  0  0  0  0  0  0  0
    0.7350   16.5550   16.8540 N   0  0  0  0  0  0  0  0  0  0  0  0
    1.8480   17.4100   14.9030 C   0  0  0  0  0  0  0  0  0  0  0  0
    3.7430   18.7240   16.5810 C   0  0  0  0  0  0  0  0  0  0  0  0
    1.6490   16.3230   20.5140 C   0  0  0  0  0  0  0  0  0  0  0  0
   -0.5010   15.4490   18.6500 C   0  0  0  0  0  0  0  0  0  0  0  0
    3.2650   20.1890   16.4460 C   0  0  1  0  0  0  0  0  0  0  0  0
    3.1430   20.9140   17.7870 C   0  0  0  0  0  0  0  0  0  0  0  0
    1.0820   18.3960   14.2470 C   0  0  0  0  0  0  0  0  0  0  0  0
    4.2250   21.0940   15.6810 C   0  0  0  0  0  0  0  0  0  0  0  0
    1.2120   18.6290   12.8900 C   0  0  0  0  0  0  0  0  0  0  0  0
    2.1160   17.8500   12.1530 C   0  0  0  0  0  0  0  0  0  0  0  0
    4.6870   20.8050   14.5790 O   0  0  0  0  0  0  0  0  0  0  0  0
    2.7440   16.5900   14.1500 C   0  0  0  0  0  0  0  0  0  0  0  0
    3.6260   22.3610   17.5610 C   0  0  1  0  0  0  0  0  0  0  0  0
    4.4240   22.2500   16.3300 N   0  0  0  0  0  0  0  0  0  0  0  0
    5.2470   23.3440   15.8100 C   0  0  0  0  0  0  0  0  0  0  0  0
    2.4040   23.2690   17.2750 C   0  0  0  0  0  0  0  0  0  0  0  0
    2.2770   18.1130   10.8000 O   0  0  0  0  0  0  0  0  0  0  0  0
    3.4350   15.6690   14.7050 O   0  5  0  0  0  0  0  0  0  0  0  0
    3.2440   17.4330   10.0770 C   0  0  0  0  0  0  0  0  0  0  0  0
    4.4580   22.8670   18.7610 C   0  0  0  0  0  0  0  0  0  0  0  0
    3.4940   17.7910    8.7550 C   0  0  0  0  0  0  0  0  0  0  0  0
    3.9630   16.4020   10.6800 C   0  0  0  0  0  0  0  0  0  0  0  0
    2.8460   16.8430   12.7580 C   0  0  0  0  0  0  0  0  0  0  0  0
    3.7050   16.0580   11.9940 O   0  0  0  0  0  0  0  0  0  0  0  0
    5.5120   22.2590   19.0570 O   0  0  0  0  0  0  0  0  0  0  0  0
    4.9510   15.7340    9.9570 C   0  0  0  0  0  0  0  0  0  0  0  0
    5.6680   14.7240   10.5400 O   0  0  0  0  0  0  0  0  0  0  0  0
    4.4830   17.1150    8.0370 C   0  0  0  0  0  0  0  0  0  0  0  0
    5.2180   16.0900    8.6350 C   0  0  0  0  0  0  0  0  0  0  0  0
    4.0610   23.8680   19.4030 O   0  5  0  0  0  0  0  0  0  0  0  0
    4.6550   18.7110   17.1610 H   0  0  0  0  0  0  0  0  0  0  0  0
    4.0690   18.3710   15.6140 H   0  0  0  0  0  0  0  0  0  0  0  0
    0.8620   16.8470   21.0350 H   0  0  0  0  0  0  0  0  0  0  0  0
    1.4870   15.2630   20.6440 H   0  0  0  0  0  0  0  0  0  0  0  0
    2.5820   16.5520   21.0100 H   0  0  0  0  0  0  0  0  0  0  0  0
   -0.9610   15.8650   19.5350 H   0  0  0  0  0  0  0  0  0  0  0  0
   -1.2690   15.3900   17.8900 H   0  0  0  0  0  0  0  0  0  0  0  0
   -0.2000   14.4360   18.8780 H   0  0  0  0  0  0  0  0  0  0  0  0
    2.3030   20.2090   15.9370 H   0  0  0  0  0  0  0  0  0  0  0  0
    2.1190   20.8720   18.1560 H   0  0  0  0  0  0  0  0  0  0  0  0
    3.8080   20.4350   18.5040 H   0  0  0  0  0  0  0  0  0  0  0  0
    0.4000   18.9780   14.8100 H   0  0  0  0  0  0  0  0  0  0  0  0
    0.6440   19.3840   12.4130 H   0  0  0  0  0  0  0  0  0  0  0  0
    4.6330   24.1460   15.4260 H   0  0  0  0  0  0  0  0  0  0  0  0
    5.8820   23.7590   16.5800 H   0  0  0  0  0  0  0  0  0  0  0  0
    5.8950   23.0170   15.0080 H   0  0  0  0  0  0  0  0  0  0  0  0
    1.7370   23.2990   18.1370 H   0  0  0  0  0  0  0  0  0  0  0  0
    2.7220   24.2890   17.0590 H   0  0  0  0  0  0  0  0  0  0  0  0
    1.8350   22.9020   16.4190 H   0  0  0  0  0  0  0  0  0  0  0  0
    2.9410   18.5720    8.2990 H   0  0  0  0  0  0  0  0  0  0  0  0
    5.2990   14.5220   11.4250 H   0  0  0  0  0  0  0  0  0  0  0  0
    4.6750   17.3810    7.0300 H   0  0  0  0  0  0  0  0  0  0  0  0
    5.9710   15.5840    8.0890 H   0  0  0  0  0  0  0  0  0  0  0  0
  1  2  2  0  0  0  0
  2  3  1  0  0  0  0
  2  4  1  0  0  0  0
  3  5  2  0  0  0  0
  3 10  1  0  0  0  0
  4  6  1  0  0  0  0
  4  9  1  0  0  0  0
  5  7  1  0  0  0  0
  5 11  1  0  0  0  0
  6  7  2  0  0  0  0
  6  8  1  0  0  0  0
  8 14  1  0  0  0  0
  8 19  2  0  0  0  0
  9 12  1  0  0  0  0
  9 38  1  0  0  0  0
  9 39  1  0  0  0  0
 10 40  1  0  0  0  0
 10 41  1  0  0  0  0
 10 42  1  0  0  0  0
 11 43  1  0  0  0  0
 11 44  1  0  0  0  0
 11 45  1  0  0  0  0
 12 13  1  0  0  0  0
 12 15  1  0  0  0  0
 12 46  1  0  0  0  0
 13 20  1  0  0  0  0
 13 47  1  0  0  0  0
 13 48  1  0  0  0  0
 14 16  2  0  0  0  0
 14 49  1  0  0  0  0
 15 18  2  0  0  0  0
 15 21  1  0  0  0  0
 16 17  1  0  0  0  0
 16 50  1  0  0  0  0
 17 24  1  0  0  0  0
 17 30  2  0  0  0  0
 19 25  1  0  0  0  0
 19 30  1  0  0  0  0
 20 21  1  0  0  0  0
 20 23  1  0  0  0  0
 20 27  1  0  0  0  0
 21 22  1  0  0  0  0
 22 51  1  0  0  0  0
 22 52  1  0  0  0  0
 22 53  1  0  0  0  0
 23 54  1  0  0  0  0
 23 55  1  0  0  0  0
 23 56  1  0  0  0  0
 24 26  1  0  0  0  0
 26 28  2  0  0  0  0
 26 29  1  0  0  0  0
 27 32  2  0  0  0  0
 27 37  1  0  0  0  0
 28 35  1  0  0  0  0
 28 57  1  0  0  0  0
 29 31  1  0  0  0  0
 29 33  2  0  0  0  0
 30 31  1  0  0  0  0
 33 34  1  0  0  0  0
 33 36  1  0  0  0  0
 34 58  1  0  0  0  0
 35 36  2  0  0  0  0
 35 59  1  0  0  0  0
 36 60  1  0  0  0  0
M  CHG  1  25  -1
M  CHG  1  37  -1
M  END
> <rseq>
1

> <mseq>
489

> <S>
-6.371777

> <rmsd_refine>
1.150177

> <E_conf>
-103.6749

> <E_score1>
-12.37373

> <E_refine>
-36.31264

> <E_score2>
-6.371777

>  <$File>
outputs/pdb_4j58_cleaned.pdb_2024_06_17__22_47_40_V2_BS398_MIN1_/SDF/sdf_db.sdf

> <Rec_index>
1

>  <PLIF_raw>
[[37,25,32,37,2,4,6,7,5,3],[1872,823,1872,1872,954,954,954,954,954,954],[125,54,125,125,62,62,62,62,62,62],[2,7,7,7,10,10,10,10,10,10],[5.3,0.6784086311,2.29108507,4.55104482,0.5,0.5,0.5,0.5,0.5,0.5]]

> <FP:PLIF>
1 21 29 46 13 31

>  <PLIF_ligidx>
[25,[2,4,6,7,5,3],37,37,[32,37],37]

$$$$
489
  MOE2022           3D

 60 64  0  0  1  0  0  0  0  0999 V2000
    3.6590   17.9460   19.2230 O   0  0  0  0  0  0  0  0  0  0  0  0
    2.7350   17.5000   18.5260 C   0  0  0  0  0  0  0  0  0  0  0  0
    1.6630   16.6950   19.0350 C   0  0  0  0  0  0  0  0  0  0  0  0
    2.7250   17.7910   17.1550 N   0  0  0  0  0  0  0  0  0  0  0  0
    0.6790   16.2770   18.1850 C   0  0  0  0  0  0  0  0  0  0  0  0
    1.7310   17.2310   16.3210 C   0  0  0  0  0  0  0  0  0  0  0  0
    0.7340   16.5550   16.8500 N   0  0  0  0  0  0  0  0  0  0  0  0
    1.8490   17.4100   14.8990 C   0  0  0  0  0  0  0  0  0  0  0  0
    3.7420   18.7240   16.5790 C   0  0  0  0  0  0  0  0  0  0  0  0
    1.6460   16.3230   20.5100 C   0  0  0  0  0  0  0  0  0  0  0  0
   -0.5040   15.4490   18.6450 C   0  0  0  0  0  0  0  0  0  0  0  0
    3.2660   20.1890   16.4440 C   0  0  1  0  0  0  0  0  0  0  0  0
    3.1440   20.9140   17.7850 C   0  0  0  0  0  0  0  0  0  0  0  0
    1.0830   18.3960   14.2430 C   0  0  0  0  0  0  0  0  0  0  0  0
    4.2260   21.0930   15.6800 C   0  0  0  0  0  0  0  0  0  0  0  0
    1.2130   18.6300   12.8860 C   0  0  0  0  0  0  0  0  0  0  0  0
    2.1180   17.8500   12.1500 C   0  0  0  0  0  0  0  0  0  0  0  0
    4.6860   20.8040   14.5760 O   0  0  0  0  0  0  0  0  0  0  0  0
    2.7440   16.5900   14.1470 C   0  0  0  0  0  0  0  0  0  0  0  0
    3.6290   22.3610   17.5590 C   0  0  1  0  0  0  0  0  0  0  0  0
    4.4270   22.2480   16.3280 N   0  0  0  0  0  0  0  0  0  0  0  0
    5.2510   23.3420   15.8080 C   0  0  0  0  0  0  0  0  0  0  0  0
    2.4090   23.2690   17.2740 C   0  0  0  0  0  0  0  0  0  0  0  0
    2.2780   18.1140   10.7970 O   0  0  0  0  0  0  0  0  0  0  0  0
    3.4350   15.6690   14.7020 O   0  5  0  0  0  0  0  0  0  0  0  0
    3.2450   17.4330   10.0740 C   0  0  0  0  0  0  0  0  0  0  0  0
    4.4620   22.8650   18.7600 C   0  0  0  0  0  0  0  0  0  0  0  0
    3.4950   17.7900    8.7510 C   0  0  0  0  0  0  0  0  0  0  0  0
    3.9650   16.4020   10.6770 C   0  0  0  0  0  0  0  0  0  0  0  0
    2.8470   16.8440   12.7540 C   0  0  0  0  0  0  0  0  0  0  0  0
    3.7070   16.0590   11.9910 O   0  0  0  0  0  0  0  0  0  0  0  0
    4.9520   15.7340    9.9540 C   0  0  0  0  0  0  0  0  0  0  0  0
    5.5140   22.2540   19.0570 O   0  0  0  0  0  0  0  0  0  0  0  0
    4.0670   23.8680   19.4000 O   0  5  0  0  0  0  0  0  0  0  0  0
    4.4830   17.1130    8.0320 C   0  0  0  0  0  0  0  0  0  0  0  0
    5.6700   14.7250   10.5370 O   0  0  0  0  0  0  0  0  0  0  0  0
    5.2180   16.0900    8.6310 C   0  0  0  0  0  0  0  0  0  0  0  0
    4.6550   18.7090   17.1590 H   0  0  0  0  0  0  0  0  0  0  0  0
    4.0690   18.3710   15.6110 H   0  0  0  0  0  0  0  0  0  0  0  0
    0.8590   16.8490   21.0310 H   0  0  0  0  0  0  0  0  0  0  0  0
    1.4820   15.2630   20.6410 H   0  0  0  0  0  0  0  0  0  0  0  0
    2.5780   16.5510   21.0070 H   0  0  0  0  0  0  0  0  0  0  0  0
   -0.9640   15.8660   19.5290 H   0  0  0  0  0  0  0  0  0  0  0  0
   -1.2710   15.3910   17.8840 H   0  0  0  0  0  0  0  0  0  0  0  0
   -0.2030   14.4360   18.8730 H   0  0  0  0  0  0  0  0  0  0  0  0
    2.3030   20.2100   15.9350 H   0  0  0  0  0  0  0  0  0  0  0  0
    2.1200   20.8730   18.1540 H   0  0  0  0  0  0  0  0  0  0  0  0
    3.8080   20.4330   18.5030 H   0  0  0  0  0  0  0  0  0  0  0  0
    0.4000   18.9790   14.8060 H   0  0  0  0  0  0  0  0  0  0  0  0
    0.6450   19.3850   12.4080 H   0  0  0  0  0  0  0  0  0  0  0  0
    4.6360   24.1410   15.4180 H   0  0  0  0  0  0  0  0  0  0  0  0
    5.8820   23.7610   16.5790 H   0  0  0  0  0  0  0  0  0  0  0  0
    5.9020   23.0130   15.0100 H   0  0  0  0  0  0  0  0  0  0  0  0
    1.7420   23.3000   18.1360 H   0  0  0  0  0  0  0  0  0  0  0  0
    2.7280   24.2890   17.0580 H   0  0  0  0  0  0  0  0  0  0  0  0
    1.8390   22.9040   16.4180 H   0  0  0  0  0  0  0  0  0  0  0  0
    2.9410   18.5700    8.2950 H   0  0  0  0  0  0  0  0  0  0  0  0
    4.6750   17.3790    7.0250 H   0  0  0  0  0  0  0  0  0  0  0  0
    5.3010   14.5230   11.4220 H   0  0  0  0  0  0  0  0  0  0  0  0
    5.9710   15.5830    8.0850 H   0  0  0  0  0  0  0  0  0  0  0  0
  1  2  2  0  0  0  0
  2  3  1  0  0  0  0
  2  4  1  0  0  0  0
  3  5  2  0  0  0  0
  3 10  1  0  0  0  0
  4  6  1  0  0  0  0
  4  9  1  0  0  0  0
  5  7  1  0  0  0  0
  5 11  1  0  0  0  0
  6  7  2  0  0  0  0
  6  8  1  0  0  0  0
  8 14  1  0  0  0  0
  8 19  2  0  0  0  0
  9 12  1  0  0  0  0
  9 38  1  0  0  0  0
  9 39  1  0  0  0  0
 10 40  1  0  0  0  0
 10 41  1  0  0  0  0
 10 42  1  0  0  0  0
 11 43  1  0  0  0  0
 11 44  1  0  0  0  0
 11 45  1  0  0  0  0
 12 13  1  0  0  0  0
 12 15  1  0  0  0  0
 12 46  1  0  0  0  0
 13 20  1  0  0  0  0
 13 47  1  0  0  0  0
 13 48  1  0  0  0  0
 14 16  2  0  0  0  0
 14 49  1  0  0  0  0
 15 18  2  0  0  0  0
 15 21  1  0  0  0  0
 16 17  1  0  0  0  0
 16 50  1  0  0  0  0
 17 24  1  0  0  0  0
 17 30  2  0  0  0  0
 19 25  1  0  0  0  0
 19 30  1  0  0  0  0
 20 21  1  0  0  0  0
 20 23  1  0  0  0  0
 20 27  1  0  0  0  0
 21 22  1  0  0  0  0
 22 51  1  0  0  0  0
 22 52  1  0  0  0  0
 22 53  1  0  0  0  0
 23 54  1  0  0  0  0
 23 55  1  0  0  0  0
 23 56  1  0  0  0  0
 24 26  1  0  0  0  0
 26 28  2  0  0  0  0
 26 29  1  0  0  0  0
 27 33  2  0  0  0  0
 27 34  1  0  0  0  0
 28 35  1  0  0  0  0
 28 57  1  0  0  0  0
 29 31  1  0  0  0  0
 29 32  2  0  0  0  0
 30 31  1  0  0  0  0
 32 36  1  0  0  0  0
 32 37  1  0  0  0  0
 35 37  2  0  0  0  0
 35 58  1  0  0  0  0
 36 59  1  0  0  0  0
 37 60  1  0  0  0  0
M  CHG  1  25  -1
M  CHG  1  34  -1
M  END
> <rseq>
1

> <mseq>
490

> <S>
-6.369011

> <rmsd_refine>
1.235049

> <E_conf>
-103.6769

> <E_score1>
-12.41493

> <E_refine>
-36.3181

> <E_score2>
-6.369011

>  <$File>
outputs/pdb_4j58_cleaned.pdb_2024_06_17__22_47_40_V2_BS398_MIN1_/SDF/sdf_db.sdf

> <Rec_index>
1

>  <PLIF_raw>
[[34,25,33,34,2,4,6,7,5,3],[1872,823,1872,1872,954,954,954,954,954,954],[125,54,125,125,62,62,62,62,62,62],[2,7,7,7,10,10,10,10,10,10],[5.3,0.681591087,2.280415915,4.553174702,0.5,0.5,0.5,0.5,0.5,0.5]]

> <FP:PLIF>
1 21 29 46 13 31

>  <PLIF_ligidx>
[25,[2,4,6,7,5,3],34,34,[33,34],34]

$$$$
508
  MOE2022           3D

 64 66  0  0  1  0  0  0  0  0999 V2000
    5.1280   14.8510   10.0030 C   0  0  0  0  0  0  0  0  0  0  0  0
    4.3670   14.7520   11.1620 C   0  0  0  0  0  0  0  0  0  0  0  0
    3.6240   15.8550   11.6170 C   0  0  0  0  0  0  0  0  0  0  0  0
    5.8890   13.7800    9.6060 O   0  0  0  0  0  0  0  0  0  0  0  0
    3.6190   17.0320   10.8410 C   0  0  0  0  0  0  0  0  0  0  0  0
    2.9220   15.7750   12.9020 C   0  0  0  0  0  0  0  0  0  0  0  0
    2.5140   16.9530   13.4930 N   0  0  0  0  0  0  0  0  0  0  0  0
    2.7110   14.7190   13.4910 O   0  0  0  0  0  0  0  0  0  0  0  0
    5.1280   16.0320    9.2590 C   0  0  0  0  0  0  0  0  0  0  0  0
    1.9680   17.1590   14.8200 C   0  0  0  0  0  0  0  0  0  0  0  0
    2.4900   16.5910   15.9510 C   0  0  0  0  0  0  0  0  0  0  0  0
    0.9020   18.1150   14.9010 C   0  0  0  0  0  0  0  0  0  0  0  0
    3.5650   15.7580   15.9430 O   0  0  0  0  0  0  0  0  0  0  0  0
    0.3550   18.6320   13.9190 O   0  0  0  0  0  0  0  0  0  0  0  0
    0.4940   18.5200   16.1770 N   0  0  0  0  0  0  0  0  0  0  0  0
    5.8720   16.1290    8.1210 O   0  0  0  0  0  0  0  0  0  0  0  0
    1.9650   16.9020   17.2230 N   0  0  0  0  0  0  0  0  0  0  0  0
   -0.3810   19.7080   16.3210 C   0  0  0  0  0  0  0  0  0  0  0  0
    4.3670   17.1200    9.6710 C   0  0  0  0  0  0  0  0  0  0  0  0
    1.0410   17.9430   17.3410 C   0  0  0  0  0  0  0  0  0  0  0  0
    0.3450   21.0520   16.1080 C   0  0  0  0  0  0  0  0  0  0  0  0
    0.7420   18.3790   18.4450 O   0  0  0  0  0  0  0  0  0  0  0  0
    2.5030   16.2710   18.4710 C   0  0  0  0  0  0  0  0  0  0  0  0
    1.6950   21.1660   16.8370 C   0  0  0  0  0  0  0  0  0  0  0  0
    2.3580   22.5320   16.6120 C   0  0  0  0  0  0  0  0  0  0  0  0
    3.8640   22.4910   16.9180 C   0  0  0  0  0  0  0  0  0  0  0  0
    4.2370   22.2530   18.3980 C   0  0  2  0  0  0  0  0  0  0  0  0
    4.0170   23.4470   19.1760 O   0  0  0  0  0  0  0  0  0  0  0  0
    1.5440   15.9070   19.6040 C   0  0  0  0  0  0  0  0  0  0  0  0
    0.6670   15.0360   19.4080 O   0  5  0  0  0  0  0  0  0  0  0  0
    5.6650   21.7510   18.5720 C   0  0  0  0  0  0  0  0  0  0  0  0
    1.7060   16.4850   20.7030 O   0  0  0  0  0  0  0  0  0  0  0  0
    5.8730   20.4780   19.1040 C   0  0  0  0  0  0  0  0  0  0  0  0
    6.7870   22.4970   18.1870 C   0  0  0  0  0  0  0  0  0  0  0  0
    7.1630   19.9650   19.2350 C   0  0  0  0  0  0  0  0  0  0  0  0
    6.6470   23.7540   17.6780 O   0  0  0  0  0  0  0  0  0  0  0  0
    8.2620   20.7160   18.8300 C   0  0  0  0  0  0  0  0  0  0  0  0
    8.0780   21.9870   18.3040 C   0  0  0  0  0  0  0  0  0  0  0  0
    4.3690   13.8480   11.7130 H   0  0  0  0  0  0  0  0  0  0  0  0
    5.7930   13.0400   10.2380 H   0  0  0  0  0  0  0  0  0  0  0  0
    3.0450   17.8700   11.1410 H   0  0  0  0  0  0  0  0  0  0  0  0
    2.5420   17.7850   12.8840 H   0  0  0  0  0  0  0  0  0  0  0  0
    3.7300   15.4460   15.0310 H   0  0  0  0  0  0  0  0  0  0  0  0
    6.3380   15.2840    7.9620 H   0  0  0  0  0  0  0  0  0  0  0  0
   -1.2130   19.6380   15.6330 H   0  0  0  0  0  0  0  0  0  0  0  0
   -0.8540   19.7140   17.2930 H   0  0  0  0  0  0  0  0  0  0  0  0
    4.3600   18.0120    9.0970 H   0  0  0  0  0  0  0  0  0  0  0  0
    0.5160   21.1780   15.0390 H   0  0  0  0  0  0  0  0  0  0  0  0
   -0.3160   21.8530   16.4440 H   0  0  0  0  0  0  0  0  0  0  0  0
    2.9880   15.3550   18.1920 H   0  0  0  0  0  0  0  0  0  0  0  0
    3.2790   16.9080   18.8700 H   0  0  0  0  0  0  0  0  0  0  0  0
    1.5460   21.0080   17.9040 H   0  0  0  0  0  0  0  0  0  0  0  0
    2.3610   20.3890   16.4590 H   0  0  0  0  0  0  0  0  0  0  0  0
    2.2410   22.8140   15.5640 H   0  0  0  0  0  0  0  0  0  0  0  0
    1.8670   23.2870   17.2280 H   0  0  0  0  0  0  0  0  0  0  0  0
    4.3110   21.6950   16.3200 H   0  0  0  0  0  0  0  0  0  0  0  0
    4.3000   23.4340   16.5880 H   0  0  0  0  0  0  0  0  0  0  0  0
    3.5730   21.5050   18.8050 H   0  0  0  0  0  0  0  0  0  0  0  0
    3.0720   23.6740   19.1630 H   0  0  0  0  0  0  0  0  0  0  0  0
    5.0470   19.8850   19.4060 H   0  0  0  0  0  0  0  0  0  0  0  0
    7.3080   18.9990   19.6390 H   0  0  0  0  0  0  0  0  0  0  0  0
    5.7100   24.0300   17.7330 H   0  0  0  0  0  0  0  0  0  0  0  0
    9.2400   20.3180   18.9220 H   0  0  0  0  0  0  0  0  0  0  0  0
    8.9110   22.5620   17.9940 H   0  0  0  0  0  0  0  0  0  0  0  0
  1  2  1  0  0  0  0
  1  4  1  0  0  0  0
  1  9  2  0  0  0  0
  2  3  2  0  0  0  0
  2 39  1  0  0  0  0
  3  5  1  0  0  0  0
  3  6  1  0  0  0  0
  4 40  1  0  0  0  0
  5 19  2  0  0  0  0
  5 41  1  0  0  0  0
  6  7  1  0  0  0  0
  6  8  2  0  0  0  0
  7 10  1  0  0  0  0
  7 42  1  0  0  0  0
  9 16  1  0  0  0  0
  9 19  1  0  0  0  0
 10 11  2  0  0  0  0
 10 12  1  0  0  0  0
 11 13  1  0  0  0  0
 11 17  1  0  0  0  0
 12 14  2  0  0  0  0
 12 15  1  0  0  0  0
 13 43  1  0  0  0  0
 15 18  1  0  0  0  0
 15 20  1  0  0  0  0
 16 44  1  0  0  0  0
 17 20  1  0  0  0  0
 17 23  1  0  0  0  0
 18 21  1  0  0  0  0
 18 45  1  0  0  0  0
 18 46  1  0  0  0  0
 19 47  1  0  0  0  0
 20 22  2  0  0  0  0
 21 24  1  0  0  0  0
 21 48  1  0  0  0  0
 21 49  1  0  0  0  0
 23 29  1  0  0  0  0
 23 50  1  0  0  0  0
 23 51  1  0  0  0  0
 24 25  1  0  0  0  0
 24 52  1  0  0  0  0
 24 53  1  0  0  0  0
 25 26  1  0  0  0  0
 25 54  1  0  0  0  0
 25 55  1  0  0  0  0
 26 27  1  0  0  0  0
 26 56  1  0  0  0  0
 26 57  1  0  0  0  0
 27 28  1  0  0  0  0
 27 31  1  0  0  0  0
 27 58  1  0  0  0  0
 28 59  1  0  0  0  0
 29 30  1  0  0  0  0
 29 32  2  0  0  0  0
 31 33  1  0  0  0  0
 31 34  2  0  0  0  0
 33 35  2  0  0  0  0
 33 60  1  0  0  0  0
 34 36  1  0  0  0  0
 34 38  1  0  0  0  0
 35 37  1  0  0  0  0
 35 61  1  0  0  0  0
 36 62  1  0  0  0  0
 37 38  2  0  0  0  0
 37 63  1  0  0  0  0
 38 64  1  0  0  0  0
M  CHG  1  30  -1
M  END
> <rseq>
1

> <mseq>
509

> <S>
-7.537105

> <rmsd_refine>
1.346092

> <E_conf>
-150.8996

> <E_score1>
-14.48913

> <E_refine>
-45.94618

> <E_score2>
-7.537105

>  <$File>
outputs/pdb_4j58_cleaned.pdb_2024_06_17__22_47_40_V2_BS398_MIN1_/SDF/sdf_db.sdf

> <Rec_index>
1

>  <PLIF_raw>
[[30,30],[1212,1212],[81,81],[2,7],[1.5,1.789954843]]

> <FP:PLIF>
17 18 24

>  <PLIF_ligidx>
[30,30,30]

$$$$
509
  MOE2022           3D

 68 71  0  0  1  0  0  0  0  0999 V2000
    2.3540   16.6780   19.1260 O   0  0  0  0  0  0  0  0  0  0  0  0
    1.4370   16.9060   18.3370 C   0  0  0  0  0  0  0  0  0  0  0  0
    1.6420   17.8160   17.3300 N   0  0  0  0  0  0  0  0  0  0  0  0
    0.1370   16.2310   18.3940 C   0  0  0  0  0  0  0  0  0  0  0  0
   -0.9830   16.7360   17.7120 C   0  0  0  0  0  0  0  0  0  0  0  0
   -2.1960   16.0590   17.7430 C   0  0  0  0  0  0  0  0  0  0  0  0
   -0.0030   15.0370   19.1160 C   0  0  0  0  0  0  0  0  0  0  0  0
    2.9630   18.1600   16.8110 C   0  0  1  0  0  0  0  0  0  0  0  0
   -1.2170   14.3580   19.1340 C   0  0  0  0  0  0  0  0  0  0  0  0
   -2.3130   14.8670   18.4490 C   0  0  0  0  0  0  0  0  0  0  0  0
    2.9570   18.1880   15.2800 C   0  0  0  0  0  0  0  0  0  0  0  0
    2.4810   17.0880   14.5450 C   0  0  0  0  0  0  0  0  0  0  0  0
    2.0950   15.9340   15.1710 O   0  0  0  0  0  0  0  0  0  0  0  0
    2.3960   17.1150   13.1590 C   0  0  0  0  0  0  0  0  0  0  0  0
    2.8480   18.2410   12.4830 C   0  0  0  0  0  0  0  0  0  0  0  0
    3.4650   19.4600   17.4650 C   0  0  0  0  0  0  0  0  0  0  0  0
    2.7450   18.2720   11.1100 O   0  0  0  0  0  0  0  0  0  0  0  0
    3.3770   19.3290   13.1770 C   0  0  0  0  0  0  0  0  0  0  0  0
    4.6130   20.1160   16.6840 C   0  0  1  0  0  0  0  0  0  0  0  0
    3.4380   19.3020   14.5740 C   0  0  0  0  0  0  0  0  0  0  0  0
    3.8780   18.0050   10.2310 C   0  0  0  0  0  0  0  0  0  0  0  0
    4.0240   20.4940   15.3130 C   0  0  0  0  0  0  0  0  0  0  0  0
    4.3100   16.5430   10.1950 C   0  0  0  0  0  0  0  0  0  0  0  0
    5.2180   21.3440   17.4030 C   0  0  0  0  0  0  0  0  0  0  0  0
    4.1830   15.8150   11.1670 O   0  0  0  0  0  0  0  0  0  0  0  0
    4.9000   16.0180    9.0580 N   0  0  0  0  0  0  0  0  0  0  0  0
    5.0990   16.8360    7.9420 O   0  0  0  0  0  0  0  0  0  0  0  0
    6.4690   21.0410   18.2620 C   0  0  0  0  0  0  0  0  0  0  0  0
    7.0490   22.3560   18.8050 C   0  0  0  0  0  0  0  0  0  0  0  0
    6.2010   20.0900   19.4370 C   0  0  0  0  0  0  0  0  0  0  0  0
    5.3170   14.6610    8.9420 C   0  0  0  0  0  0  0  0  0  0  0  0
    4.8130   13.8330    7.9350 C   0  0  0  0  0  0  0  0  0  0  0  0
    6.2190   14.1360    9.8770 C   0  0  0  0  0  0  0  0  0  0  0  0
    3.9560   14.3170    7.0110 F   0  0  0  0  0  0  0  0  0  0  0  0
    6.5760   12.7880    9.8230 C   0  0  0  0  0  0  0  0  0  0  0  0
    5.1820   12.4950    7.8900 C   0  0  0  0  0  0  0  0  0  0  0  0
    4.6910   11.6920    6.9200 F   0  0  0  0  0  0  0  0  0  0  0  0
    6.0540   11.9550    8.8310 C   0  0  0  0  0  0  0  0  0  0  0  0
    0.8620   17.9940   16.6820 H   0  0  0  0  0  0  0  0  0  0  0  0
   -0.9180   17.6420   17.1680 H   0  0  0  0  0  0  0  0  0  0  0  0
   -3.0340   16.4500   17.2240 H   0  0  0  0  0  0  0  0  0  0  0  0
    0.8280   14.6380   19.6380 H   0  0  0  0  0  0  0  0  0  0  0  0
    3.6510   17.3750   17.0840 H   0  0  0  0  0  0  0  0  0  0  0  0
   -1.3100   13.4450   19.6630 H   0  0  0  0  0  0  0  0  0  0  0  0
   -3.2370   14.3480   18.4650 H   0  0  0  0  0  0  0  0  0  0  0  0
    1.7990   15.2700   14.5180 H   0  0  0  0  0  0  0  0  0  0  0  0
    2.0020   16.2900   12.6240 H   0  0  0  0  0  0  0  0  0  0  0  0
    2.6350   20.1660   17.5320 H   0  0  0  0  0  0  0  0  0  0  0  0
    3.7760   19.2220   18.4800 H   0  0  0  0  0  0  0  0  0  0  0  0
    3.7220   20.1760   12.6410 H   0  0  0  0  0  0  0  0  0  0  0  0
    5.4000   19.3810   16.5270 H   0  0  0  0  0  0  0  0  0  0  0  0
    3.6080   18.3420    9.2390 H   0  0  0  0  0  0  0  0  0  0  0  0
    4.7080   18.6310   10.5180 H   0  0  0  0  0  0  0  0  0  0  0  0
    3.2390   21.2410   15.4440 H   0  0  0  0  0  0  0  0  0  0  0  0
    4.8100   20.9350   14.7000 H   0  0  0  0  0  0  0  0  0  0  0  0
    5.5190   22.0700   16.6470 H   0  0  0  0  0  0  0  0  0  0  0  0
    4.4530   21.8190   18.0200 H   0  0  0  0  0  0  0  0  0  0  0  0
    5.2970   16.2410    7.1910 H   0  0  0  0  0  0  0  0  0  0  0  0
    7.2260   20.5830   17.6230 H   0  0  0  0  0  0  0  0  0  0  0  0
    7.9460   22.1520   19.3920 H   0  0  0  0  0  0  0  0  0  0  0  0
    7.3210   23.0130   17.9770 H   0  0  0  0  0  0  0  0  0  0  0  0
    6.3150   22.8600   19.4320 H   0  0  0  0  0  0  0  0  0  0  0  0
    5.9560   19.1000   19.0590 H   0  0  0  0  0  0  0  0  0  0  0  0
    7.0950   20.0010   20.0560 H   0  0  0  0  0  0  0  0  0  0  0  0
    5.3760   20.4620   20.0440 H   0  0  0  0  0  0  0  0  0  0  0  0
    6.6210   14.7600   10.6320 H   0  0  0  0  0  0  0  0  0  0  0  0
    7.2470   12.3920   10.5420 H   0  0  0  0  0  0  0  0  0  0  0  0
    6.3200   10.9300    8.7940 H   0  0  0  0  0  0  0  0  0  0  0  0
  1  2  2  0  0  0  0
  2  3  1  0  0  0  0
  2  4  1  0  0  0  0
  3  8  1  0  0  0  0
  3 39  1  0  0  0  0
  4  5  2  0  0  0  0
  4  7  1  0  0  0  0
  5  6  1  0  0  0  0
  5 40  1  0  0  0  0
  6 10  2  0  0  0  0
  6 41  1  0  0  0  0
  7  9  2  0  0  0  0
  7 42  1  0  0  0  0
  8 11  1  0  0  0  0
  8 16  1  0  0  0  0
  8 43  1  0  0  0  0
  9 10  1  0  0  0  0
  9 44  1  0  0  0  0
 10 45  1  0  0  0  0
 11 12  1  0  0  0  0
 11 20  2  0  0  0  0
 12 13  1  0  0  0  0
 12 14  2  0  0  0  0
 13 46  1  0  0  0  0
 14 15  1  0  0  0  0
 14 47  1  0  0  0  0
 15 17  1  0  0  0  0
 15 18  2  0  0  0  0
 16 19  1  0  0  0  0
 16 48  1  0  0  0  0
 16 49  1  0  0  0  0
 17 21  1  0  0  0  0
 18 20  1  0  0  0  0
 18 50  1  0  0  0  0
 19 22  1  0  0  0  0
 19 24  1  0  0  0  0
 19 51  1  0  0  0  0
 20 22  1  0  0  0  0
 21 23  1  0  0  0  0
 21 52  1  0  0  0  0
 21 53  1  0  0  0  0
 22 54  1  0  0  0  0
 22 55  1  0  0  0  0
 23 25  2  0  0  0  0
 23 26  1  0  0  0  0
 24 28  1  0  0  0  0
 24 56  1  0  0  0  0
 24 57  1  0  0  0  0
 26 27  1  0  0  0  0
 26 31  1  0  0  0  0
 27 58  1  0  0  0  0
 28 29  1  0  0  0  0
 28 30  1  0  0  0  0
 28 59  1  0  0  0  0
 29 60  1  0  0  0  0
 29 61  1  0  0  0  0
 29 62  1  0  0  0  0
 30 63  1  0  0  0  0
 30 64  1  0  0  0  0
 30 65  1  0  0  0  0
 31 32  2  0  0  0  0
 31 33  1  0  0  0  0
 32 34  1  0  0  0  0
 32 36  1  0  0  0  0
 33 35  2  0  0  0  0
 33 66  1  0  0  0  0
 35 38  1  0  0  0  0
 35 67  1  0  0  0  0
 36 37  1  0  0  0  0
 36 38  2  0  0  0  0
 38 68  1  0  0  0  0
M  END
> <rseq>
1

> <mseq>
510

> <S>
-7.324144

> <rmsd_refine>
1.749946

> <E_conf>
27.85915

> <E_score1>
-12.72731

> <E_refine>
-38.38881

> <E_score2>
-7.324144

>  <$File>
outputs/pdb_4j58_cleaned.pdb_2024_06_17__22_47_40_V2_BS398_MIN1_/SDF/sdf_db.sdf

> <Rec_index>
1

>  <PLIF_raw>
[[],[],[],[],[]]

>  <PLIF_ligidx>
[]

$$$$
510
  MOE2022           3D

 68 72  0  0  1  0  0  0  0  0999 V2000
    3.7040   17.9720   19.3520 O   0  0  0  0  0  0  0  0  0  0  0  0
    2.8080   17.6560   18.5620 C   0  0  0  0  0  0  0  0  0  0  0  0
    1.6400   16.9030   18.9340 C   0  0  0  0  0  0  0  0  0  0  0  0
    2.9380   18.0140   17.2120 N   0  0  0  0  0  0  0  0  0  0  0  0
    0.7240   16.5810   17.9780 C   0  0  0  0  0  0  0  0  0  0  0  0
    2.0140   17.5270   16.2670 C   0  0  0  0  0  0  0  0  0  0  0  0
    0.9460   16.8920   16.6580 N   0  0  0  0  0  0  0  0  0  0  0  0
    2.3330   17.6200   14.8490 C   0  0  0  0  0  0  0  0  0  0  0  0
    4.1030   18.8440   16.7770 C   0  0  0  0  0  0  0  0  0  0  0  0
    1.4660   16.4610   20.3790 C   0  0  0  0  0  0  0  0  0  0  0  0
   -0.5440   15.8030   18.2690 C   0  0  0  0  0  0  0  0  0  0  0  0
    3.8700   20.3690   16.7020 C   0  0  1  0  0  0  0  0  0  0  0  0
    4.1260   21.0940   18.0250 C   0  0  0  0  0  0  0  0  0  0  0  0
    2.2260   18.8170   14.1150 C   0  0  0  0  0  0  0  0  0  0  0  0
    4.9040   21.0270   15.7990 C   0  0  0  0  0  0  0  0  0  0  0  0
    2.6070   18.8710   12.7750 C   0  0  0  0  0  0  0  0  0  0  0  0
    3.0770   17.7170   12.1440 C   0  0  0  0  0  0  0  0  0  0  0  0
    4.8310   20.9970   14.5710 O   0  0  0  0  0  0  0  0  0  0  0  0
    2.7690   16.4660   14.1780 C   0  0  0  0  0  0  0  0  0  0  0  0
    5.5650   21.6510   17.9610 C   0  0  1  0  0  0  0  0  0  0  0  0
    5.8710   21.6130   16.5150 N   0  0  0  0  0  0  0  0  0  0  0  0
    7.0540   22.2440   15.9230 C   0  0  0  0  0  0  0  0  0  0  0  0
    5.5910   23.1160   18.4480 C   0  0  0  0  0  0  0  0  0  0  0  0
    3.5190   17.7840   10.8360 O   0  0  0  0  0  0  0  0  0  0  0  0
    2.8370   15.2730   14.8420 O   0  0  0  0  0  0  0  0  0  0  0  0
    3.9540   16.6480   10.1710 C   0  0  0  0  0  0  0  0  0  0  0  0
    6.5030   20.7760   18.8200 C   0  0  0  0  0  0  0  0  0  0  0  0
    4.6830   16.7700    9.0500 C   0  0  0  0  0  0  0  0  0  0  0  0
    3.5490   15.3120   10.7700 C   0  0  2  0  0  0  0  0  0  0  0  0
    3.1350   16.5090   12.8370 C   0  0  0  0  0  0  0  0  0  0  0  0
    3.5630   15.3620   12.2060 O   0  0  0  0  0  0  0  0  0  0  0  0
    7.3300   20.0270   18.2520 O   0  0  0  0  0  0  0  0  0  0  0  0
    6.3760   20.8390   20.0660 O   0  5  0  0  0  0  0  0  0  0  0  0
    4.4240   14.1530   10.2570 C   0  0  1  0  0  0  0  0  0  0  0  0
    3.8470   12.9190   10.6460 O   0  0  0  0  0  0  0  0  0  0  0  0
    5.2400   15.5670    8.3140 C   0  0  0  0  0  0  0  0  0  0  0  0
    4.5900   14.2250    8.7240 C   0  0  1  0  0  0  0  0  0  0  0  0
    5.3840   13.0330    8.1660 C   0  0  0  0  0  0  0  0  0  0  0  0
    4.9560   18.6790   17.4180 H   0  0  0  0  0  0  0  0  0  0  0  0
    4.4600   18.4990   15.8170 H   0  0  0  0  0  0  0  0  0  0  0  0
    0.6400   16.9740   20.8490 H   0  0  0  0  0  0  0  0  0  0  0  0
    1.2710   15.3990   20.4350 H   0  0  0  0  0  0  0  0  0  0  0  0
    2.3470   16.6400   20.9800 H   0  0  0  0  0  0  0  0  0  0  0  0
   -1.0060   16.1070   19.1970 H   0  0  0  0  0  0  0  0  0  0  0  0
   -1.2820   15.9400   17.4900 H   0  0  0  0  0  0  0  0  0  0  0  0
   -0.3410   14.7440   18.3370 H   0  0  0  0  0  0  0  0  0  0  0  0
    2.8620   20.5780   16.3470 H   0  0  0  0  0  0  0  0  0  0  0  0
    3.4080   21.9110   18.1140 H   0  0  0  0  0  0  0  0  0  0  0  0
    4.0060   20.4300   18.8730 H   0  0  0  0  0  0  0  0  0  0  0  0
    1.8550   19.6900   14.5850 H   0  0  0  0  0  0  0  0  0  0  0  0
    2.5470   19.7830   12.2390 H   0  0  0  0  0  0  0  0  0  0  0  0
    7.2490   21.8800   14.9240 H   0  0  0  0  0  0  0  0  0  0  0  0
    6.9370   23.3170   15.8610 H   0  0  0  0  0  0  0  0  0  0  0  0
    7.9400   22.0460   16.5120 H   0  0  0  0  0  0  0  0  0  0  0  0
    5.1600   23.1930   19.4420 H   0  0  0  0  0  0  0  0  0  0  0  0
    6.6150   23.4880   18.4870 H   0  0  0  0  0  0  0  0  0  0  0  0
    5.0150   23.7590   17.7810 H   0  0  0  0  0  0  0  0  0  0  0  0
    2.4120   15.3410   15.7230 H   0  0  0  0  0  0  0  0  0  0  0  0
    4.9310   17.7210    8.6540 H   0  0  0  0  0  0  0  0  0  0  0  0
    2.5240   15.1220   10.4780 H   0  0  0  0  0  0  0  0  0  0  0  0
    5.4080   14.2410   10.7200 H   0  0  0  0  0  0  0  0  0  0  0  0
    3.8520   12.8720   11.6080 H   0  0  0  0  0  0  0  0  0  0  0  0
    5.1340   15.7140    7.2470 H   0  0  0  0  0  0  0  0  0  0  0  0
    6.3040   15.5280    8.5020 H   0  0  0  0  0  0  0  0  0  0  0  0
    3.5950   14.2110    8.2750 H   0  0  0  0  0  0  0  0  0  0  0  0
    6.3770   13.0010    8.6160 H   0  0  0  0  0  0  0  0  0  0  0  0
    4.8650   12.0980    8.3810 H   0  0  0  0  0  0  0  0  0  0  0  0
    5.4770   13.1290    7.0840 H   0  0  0  0  0  0  0  0  0  0  0  0
  1  2  2  0  0  0  0
  2  3  1  0  0  0  0
  2  4  1  0  0  0  0
  3  5  2  0  0  0  0
  3 10  1  0  0  0  0
  4  6  1  0  0  0  0
  4  9  1  0  0  0  0
  5  7  1  0  0  0  0
  5 11  1  0  0  0  0
  6  7  2  0  0  0  0
  6  8  1  0  0  0  0
  8 14  1  0  0  0  0
  8 19  2  0  0  0  0
  9 12  1  0  0  0  0
  9 39  1  0  0  0  0
  9 40  1  0  0  0  0
 10 41  1  0  0  0  0
 10 42  1  0  0  0  0
 10 43  1  0  0  0  0
 11 44  1  0  0  0  0
 11 45  1  0  0  0  0
 11 46  1  0  0  0  0
 12 13  1  0  0  0  0
 12 15  1  0  0  0  0
 12 47  1  0  0  0  0
 13 20  1  0  0  0  0
 13 48  1  0  0  0  0
 13 49  1  0  0  0  0
 14 16  2  0  0  0  0
 14 50  1  0  0  0  0
 15 18  2  0  0  0  0
 15 21  1  0  0  0  0
 16 17  1  0  0  0  0
 16 51  1  0  0  0  0
 17 24  1  0  0  0  0
 17 30  2  0  0  0  0
 19 25  1  0  0  0  0
 19 30  1  0  0  0  0
 20 21  1  0  0  0  0
 20 23  1  0  0  0  0
 20 27  1  0  0  0  0
 21 22  1  0  0  0  0
 22 52  1  0  0  0  0
 22 53  1  0  0  0  0
 22 54  1  0  0  0  0
 23 55  1  0  0  0  0
 23 56  1  0  0  0  0
 23 57  1  0  0  0  0
 24 26  1  0  0  0  0
 25 58  1  0  0  0  0
 26 28  2  0  0  0  0
 26 29  1  0  0  0  0
 27 32  2  0  0  0  0
 27 33  1  0  0  0  0
 28 36  1  0  0  0  0
 28 59  1  0  0  0  0
 29 31  1  0  0  0  0
 29 34  1  0  0  0  0
 29 60  1  0  0  0  0
 30 31  1  0  0  0  0
 34 35  1  0  0  0  0
 34 37  1  0  0  0  0
 34 61  1  0  0  0  0
 35 62  1  0  0  0  0
 36 37  1  0  0  0  0
 36 63  1  0  0  0  0
 36 64  1  0  0  0  0
 37 38  1  0  0  0  0
 37 65  1  0  0  0  0
 38 66  1  0  0  0  0
 38 67  1  0  0  0  0
 38 68  1  0  0  0  0
M  CHG  1  33  -1
M  END
> <rseq>
1

> <mseq>
511

> <S>
-7.331492

> <rmsd_refine>
1.353834

> <E_conf>
2.177773

> <E_score1>
-14.23665

> <E_refine>
-43.79737

> <E_score2>
-7.331492

>  <$File>
outputs/pdb_4j58_cleaned.pdb_2024_06_17__22_47_40_V2_BS398_MIN1_/SDF/sdf_db.sdf

> <Rec_index>
1

>  <PLIF_raw>
[[35,33,33],[1056,1866,1872],[70,125,125],[3,7,7],[1.1,1.10231341,1.032349273]]

> <FP:PLIF>
3 13

>  <PLIF_ligidx>
[35,[33,33]]

$$$$
511
  MOE2022           3D

 66 70  0  0  1  0  0  0  0  0999 V2000
    3.7090   17.9630   19.3730 O   0  0  0  0  0  0  0  0  0  0  0  0
    2.8060   17.6420   18.5920 C   0  0  0  0  0  0  0  0  0  0  0  0
    1.6470   16.8820   18.9760 C   0  0  0  0  0  0  0  0  0  0  0  0
    2.9200   18.0010   17.2420 N   0  0  0  0  0  0  0  0  0  0  0  0
    0.7220   16.5560   18.0300 C   0  0  0  0  0  0  0  0  0  0  0  0
    1.9840   17.5170   16.3070 C   0  0  0  0  0  0  0  0  0  0  0  0
    0.9250   16.8740   16.7090 N   0  0  0  0  0  0  0  0  0  0  0  0
    2.2810   17.6290   14.8870 C   0  0  0  0  0  0  0  0  0  0  0  0
    4.0810   18.8290   16.7910 C   0  0  0  0  0  0  0  0  0  0  0  0
    1.4920   16.4370   20.4230 C   0  0  0  0  0  0  0  0  0  0  0  0
   -0.5390   15.7710   18.3360 C   0  0  0  0  0  0  0  0  0  0  0  0
    3.8450   20.3540   16.7070 C   0  0  1  0  0  0  0  0  0  0  0  0
    4.1070   21.0860   18.0250 C   0  0  0  0  0  0  0  0  0  0  0  0
    2.1100   18.8240   14.1630 C   0  0  0  0  0  0  0  0  0  0  0  0
    4.8730   21.0080   15.7940 C   0  0  0  0  0  0  0  0  0  0  0  0
    2.4720   18.9030   12.8190 C   0  0  0  0  0  0  0  0  0  0  0  0
    2.9870   17.7750   12.1760 C   0  0  0  0  0  0  0  0  0  0  0  0
    4.7940   20.9660   14.5670 O   0  0  0  0  0  0  0  0  0  0  0  0
    2.7620   16.5000   14.2050 C   0  0  0  0  0  0  0  0  0  0  0  0
    5.5420   21.6500   17.9490 C   0  0  1  0  0  0  0  0  0  0  0  0
    5.8380   21.6070   16.5010 N   0  0  0  0  0  0  0  0  0  0  0  0
    7.0150   22.2410   15.8980 C   0  0  0  0  0  0  0  0  0  0  0  0
    5.5650   23.1160   18.4300 C   0  0  0  0  0  0  0  0  0  0  0  0
    3.4120   17.8710   10.8650 O   0  0  0  0  0  0  0  0  0  0  0  0
    2.8930   15.3100   14.8640 O   0  0  0  0  0  0  0  0  0  0  0  0
    3.9230   16.7730   10.1950 C   0  0  0  0  0  0  0  0  0  0  0  0
    6.4910   20.7830   18.8050 C   0  0  0  0  0  0  0  0  0  0  0  0
    4.6450   16.9560    9.0780 C   0  0  0  0  0  0  0  0  0  0  0  0
    3.6100   15.4060   10.7820 C   0  0  2  0  0  0  0  0  0  0  0  0
    3.1100   16.5670   12.8600 C   0  0  0  0  0  0  0  0  0  0  0  0
    3.5850   15.4450   12.2180 O   0  0  0  0  0  0  0  0  0  0  0  0
    7.3190   20.0380   18.2340 O   0  0  0  0  0  0  0  0  0  0  0  0
    6.3700   20.8480   20.0510 O   0  5  0  0  0  0  0  0  0  0  0  0
    4.5810   14.3160   10.2880 C   0  0  1  0  0  0  0  0  0  0  0  0
    4.0660   13.0400   10.6320 O   0  0  0  0  0  0  0  0  0  0  0  0
    5.2950   15.8060    8.3360 C   0  0  0  0  0  0  0  0  0  0  0  0
    4.7820   14.4150    8.7650 C   0  0  1  0  0  0  0  0  0  0  0  0
    5.6920   13.4250    8.3210 O   0  0  0  0  0  0  0  0  0  0  0  0
    4.9390   18.6700   17.4250 H   0  0  0  0  0  0  0  0  0  0  0  0
    4.4290   18.4780   15.8290 H   0  0  0  0  0  0  0  0  0  0  0  0
    0.6730   16.9520   20.9040 H   0  0  0  0  0  0  0  0  0  0  0  0
    1.2940   15.3760   20.4800 H   0  0  0  0  0  0  0  0  0  0  0  0
    2.3810   16.6140   21.0110 H   0  0  0  0  0  0  0  0  0  0  0  0
   -0.9940   16.0770   19.2660 H   0  0  0  0  0  0  0  0  0  0  0  0
   -1.2840   15.8990   17.5630 H   0  0  0  0  0  0  0  0  0  0  0  0
   -0.3280   14.7130   18.4060 H   0  0  0  0  0  0  0  0  0  0  0  0
    2.8350   20.5580   16.3560 H   0  0  0  0  0  0  0  0  0  0  0  0
    3.3850   21.8990   18.1160 H   0  0  0  0  0  0  0  0  0  0  0  0
    3.9980   20.4230   18.8760 H   0  0  0  0  0  0  0  0  0  0  0  0
    1.7060   19.6760   14.6440 H   0  0  0  0  0  0  0  0  0  0  0  0
    2.3630   19.8140   12.2890 H   0  0  0  0  0  0  0  0  0  0  0  0
    6.8930   23.3130   15.8370 H   0  0  0  0  0  0  0  0  0  0  0  0
    7.9060   22.0460   16.4800 H   0  0  0  0  0  0  0  0  0  0  0  0
    7.2020   21.8780   14.8980 H   0  0  0  0  0  0  0  0  0  0  0  0
    5.1440   23.1940   19.4300 H   0  0  0  0  0  0  0  0  0  0  0  0
    6.5870   23.4950   18.4580 H   0  0  0  0  0  0  0  0  0  0  0  0
    4.9780   23.7540   17.7680 H   0  0  0  0  0  0  0  0  0  0  0  0
    2.4740   15.3530   15.7490 H   0  0  0  0  0  0  0  0  0  0  0  0
    4.8240   17.9270    8.6920 H   0  0  0  0  0  0  0  0  0  0  0  0
    2.6100   15.1400   10.4630 H   0  0  0  0  0  0  0  0  0  0  0  0
    5.5430   14.4610   10.7820 H   0  0  0  0  0  0  0  0  0  0  0  0
    4.0720   12.9550   11.5910 H   0  0  0  0  0  0  0  0  0  0  0  0
    5.1580   15.9310    7.2710 H   0  0  0  0  0  0  0  0  0  0  0  0
    6.3620   15.8640    8.5050 H   0  0  0  0  0  0  0  0  0  0  0  0
    3.8170   14.2480    8.2840 H   0  0  0  0  0  0  0  0  0  0  0  0
    5.6590   13.3900    7.3630 H   0  0  0  0  0  0  0  0  0  0  0  0
  1  2  2  0  0  0  0
  2  3  1  0  0  0  0
  2  4  1  0  0  0  0
  3  5  2  0  0  0  0
  3 10  1  0  0  0  0
  4  6  1  0  0  0  0
  4  9  1  0  0  0  0
  5  7  1  0  0  0  0
  5 11  1  0  0  0  0
  6  7  2  0  0  0  0
  6  8  1  0  0  0  0
  8 14  1  0  0  0  0
  8 19  2  0  0  0  0
  9 12  1  0  0  0  0
  9 39  1  0  0  0  0
  9 40  1  0  0  0  0
 10 41  1  0  0  0  0
 10 42  1  0  0  0  0
 10 43  1  0  0  0  0
 11 44  1  0  0  0  0
 11 45  1  0  0  0  0
 11 46  1  0  0  0  0
 12 13  1  0  0  0  0
 12 15  1  0  0  0  0
 12 47  1  0  0  0  0
 13 20  1  0  0  0  0
 13 48  1  0  0  0  0
 13 49  1  0  0  0  0
 14 16  2  0  0  0  0
 14 50  1  0  0  0  0
 15 18  2  0  0  0  0
 15 21  1  0  0  0  0
 16 17  1  0  0  0  0
 16 51  1  0  0  0  0
 17 24  1  0  0  0  0
 17 30  2  0  0  0  0
 19 25  1  0  0  0  0
 19 30  1  0  0  0  0
 20 21  1  0  0  0  0
 20 23  1  0  0  0  0
 20 27  1  0  0  0  0
 21 22  1  0  0  0  0
 22 52  1  0  0  0  0
 22 53  1  0  0  0  0
 22 54  1  0  0  0  0
 23 55  1  0  0  0  0
 23 56  1  0  0  0  0
 23 57  1  0  0  0  0
 24 26  1  0  0  0  0
 25 58  1  0  0  0  0
 26 28  2  0  0  0  0
 26 29  1  0  0  0  0
 27 32  2  0  0  0  0
 27 33  1  0  0  0  0
 28 36  1  0  0  0  0
 28 59  1  0  0  0  0
 29 31  1  0  0  0  0
 29 34  1  0  0  0  0
 29 60  1  0  0  0  0
 30 31  1  0  0  0  0
 34 35  1  0  0  0  0
 34 37  1  0  0  0  0
 34 61  1  0  0  0  0
 35 62  1  0  0  0  0
 36 37  1  0  0  0  0
 36 63  1  0  0  0  0
 36 64  1  0  0  0  0
 37 38  1  0  0  0  0
 37 65  1  0  0  0  0
 38 66  1  0  0  0  0
M  CHG  1  33  -1
M  END
> <rseq>
1

> <mseq>
512

> <S>
-7.269089

> <rmsd_refine>
1.265555

> <E_conf>
11.07891

> <E_score1>
-14.16412

> <E_refine>
-42.99335

> <E_score2>
-7.269089

>  <$File>
outputs/pdb_4j58_cleaned.pdb_2024_06_17__22_47_40_V2_BS398_MIN1_/SDF/sdf_db.sdf

> <Rec_index>
1

>  <PLIF_raw>
[[35,33,33],[1056,1866,1872],[70,125,125],[3,7,7],[1.4,1.077114057,1.03506904]]

> <FP:PLIF>
3 13

>  <PLIF_ligidx>
[35,[33,33]]

$$$$
512
  MOE2022           3D

 66 69  0  0  1  0  0  0  0  0999 V2000
    5.1710   14.7230   10.0460 C   0  0  0  0  0  0  0  0  0  0  0  0
    4.3740   14.6020   11.1780 C   0  0  0  0  0  0  0  0  0  0  0  0
    3.6250   15.6960   11.6410 C   0  0  0  0  0  0  0  0  0  0  0  0
    5.9360   13.6530    9.6540 O   0  0  0  0  0  0  0  0  0  0  0  0
    3.6480   16.8900   10.8900 C   0  0  0  0  0  0  0  0  0  0  0  0
    2.8910   15.5920   12.9080 C   0  0  0  0  0  0  0  0  0  0  0  0
    2.3930   16.7470   13.4500 N   0  0  0  0  0  0  0  0  0  0  0  0
    2.7250   14.5330   13.5160 O   0  0  0  0  0  0  0  0  0  0  0  0
    5.2010   15.9210    9.3290 C   0  0  0  0  0  0  0  0  0  0  0  0
    1.8480   16.9790   14.7690 C   0  0  0  0  0  0  0  0  0  0  0  0
    2.4800   16.5030   15.9330 C   0  0  0  0  0  0  0  0  0  0  0  0
    0.7440   17.8360   14.8050 C   0  0  0  0  0  0  0  0  0  0  0  0
    3.5720   15.8640   15.9710 O   0  0  0  0  0  0  0  0  0  0  0  0
    0.0550   18.1950   13.8090 O   0  5  0  0  0  0  0  0  0  0  0  0
    0.4250   18.4030   16.0570 N   0  0  0  0  0  0  0  0  0  0  0  0
    5.9830   16.0460    8.2170 O   0  0  0  0  0  0  0  0  0  0  0  0
    1.8810   16.8380   17.1820 N   0  0  0  0  0  0  0  0  0  0  0  0
   -0.2250   19.7370   16.0790 C   0  0  0  0  0  0  0  0  0  0  0  0
    4.4300   17.0030    9.7440 C   0  0  0  0  0  0  0  0  0  0  0  0
    0.9620   17.8890   17.2490 C   0  0  0  0  0  0  0  0  0  0  0  0
    0.6130   20.8490   15.4060 C   0  0  0  0  0  0  0  0  0  0  0  0
    0.6710   18.3870   18.3330 O   0  0  0  0  0  0  0  0  0  0  0  0
    2.4440   16.2820   18.4510 C   0  0  0  0  0  0  0  0  0  0  0  0
    2.0740   20.9410   15.8930 C   0  0  0  0  0  0  0  0  0  0  0  0
    3.0070   21.4980   14.8050 C   0  0  0  0  0  0  0  0  0  0  0  0
    4.4860   21.2460   15.1390 C   0  0  0  0  0  0  0  0  0  0  0  0
    5.0700   22.1750   16.2240 C   0  0  2  0  0  0  0  0  0  0  0  0
    5.9440   23.1530   15.5630 O   0  0  0  0  0  0  0  0  0  0  0  0
    1.4980   15.9160   19.5930 C   0  0  0  0  0  0  0  0  0  0  0  0
    0.6970   14.9640   19.4480 O   0  5  0  0  0  0  0  0  0  0  0  0
    5.7600   21.4100   17.3560 C   0  0  0  0  0  0  0  0  0  0  0  0
    1.6060   16.5610   20.6610 O   0  0  0  0  0  0  0  0  0  0  0  0
    5.0020   20.5500   18.1520 C   0  0  0  0  0  0  0  0  0  0  0  0
    7.1230   21.5670   17.6280 C   0  0  0  0  0  0  0  0  0  0  0  0
    7.9430   22.5370   16.8130 C   0  0  0  0  0  0  0  0  0  0  0  0
    5.5940   19.8400   19.1880 C   0  0  0  0  0  0  0  0  0  0  0  0
    7.7180   20.8430   18.6600 C   0  0  0  0  0  0  0  0  0  0  0  0
    6.9540   19.9810   19.4380 C   0  0  0  0  0  0  0  0  0  0  0  0
    7.0590   23.6740   16.3110 C   0  0  0  0  0  0  0  0  0  0  0  0
    4.3510   13.6860   11.7030 H   0  0  0  0  0  0  0  0  0  0  0  0
    5.8250   12.9090   10.2800 H   0  0  0  0  0  0  0  0  0  0  0  0
    3.0710   17.7260   11.1920 H   0  0  0  0  0  0  0  0  0  0  0  0
    2.3500   17.5520   12.8090 H   0  0  0  0  0  0  0  0  0  0  0  0
    5.9060   16.9420    7.8360 H   0  0  0  0  0  0  0  0  0  0  0  0
   -1.1840   19.6710   15.5840 H   0  0  0  0  0  0  0  0  0  0  0  0
   -0.4650   20.0410   17.0880 H   0  0  0  0  0  0  0  0  0  0  0  0
    4.4410   17.9080    9.1940 H   0  0  0  0  0  0  0  0  0  0  0  0
    0.6040   20.6530   14.3340 H   0  0  0  0  0  0  0  0  0  0  0  0
    0.1200   21.8090   15.5640 H   0  0  0  0  0  0  0  0  0  0  0  0
    2.9770   15.3840   18.2030 H   0  0  0  0  0  0  0  0  0  0  0  0
    3.1870   16.9720   18.8250 H   0  0  0  0  0  0  0  0  0  0  0  0
    2.1190   21.5610   16.7890 H   0  0  0  0  0  0  0  0  0  0  0  0
    2.4350   19.9480   16.1520 H   0  0  0  0  0  0  0  0  0  0  0  0
    2.7950   20.9830   13.8670 H   0  0  0  0  0  0  0  0  0  0  0  0
    2.8260   22.5640   14.6620 H   0  0  0  0  0  0  0  0  0  0  0  0
    4.6050   20.2040   15.4370 H   0  0  0  0  0  0  0  0  0  0  0  0
    5.0650   21.3790   14.2250 H   0  0  0  0  0  0  0  0  0  0  0  0
    4.2680   22.7500   16.6670 H   0  0  0  0  0  0  0  0  0  0  0  0
    3.9650   20.4310   17.9730 H   0  0  0  0  0  0  0  0  0  0  0  0
    8.7480   22.9500   17.4210 H   0  0  0  0  0  0  0  0  0  0  0  0
    8.3780   22.0120   15.9610 H   0  0  0  0  0  0  0  0  0  0  0  0
    5.0020   19.1930   19.7800 H   0  0  0  0  0  0  0  0  0  0  0  0
    8.7530   20.9510   18.8600 H   0  0  0  0  0  0  0  0  0  0  0  0
    7.4100   19.4370   20.2210 H   0  0  0  0  0  0  0  0  0  0  0  0
    7.6300   24.3340   15.6590 H   0  0  0  0  0  0  0  0  0  0  0  0
    6.6730   24.2430   17.1570 H   0  0  0  0  0  0  0  0  0  0  0  0
  1  2  1  0  0  0  0
  1  4  1  0  0  0  0
  1  9  2  0  0  0  0
  2  3  2  0  0  0  0
  2 40  1  0  0  0  0
  3  5  1  0  0  0  0
  3  6  1  0  0  0  0
  4 41  1  0  0  0  0
  5 19  2  0  0  0  0
  5 42  1  0  0  0  0
  6  7  1  0  0  0  0
  6  8  2  0  0  0  0
  7 10  1  0  0  0  0
  7 43  1  0  0  0  0
  9 16  1  0  0  0  0
  9 19  1  0  0  0  0
 10 11  1  0  0  0  0
 10 12  2  0  0  0  0
 11 13  2  0  0  0  0
 11 17  1  0  0  0  0
 12 14  1  0  0  0  0
 12 15  1  0  0  0  0
 15 18  1  0  0  0  0
 15 20  1  0  0  0  0
 16 44  1  0  0  0  0
 17 20  1  0  0  0  0
 17 23  1  0  0  0  0
 18 21  1  0  0  0  0
 18 45  1  0  0  0  0
 18 46  1  0  0  0  0
 19 47  1  0  0  0  0
 20 22  2  0  0  0  0
 21 24  1  0  0  0  0
 21 48  1  0  0  0  0
 21 49  1  0  0  0  0
 23 29  1  0  0  0  0
 23 50  1  0  0  0  0
 23 51  1  0  0  0  0
 24 25  1  0  0  0  0
 24 52  1  0  0  0  0
 24 53  1  0  0  0  0
 25 26  1  0  0  0  0
 25 54  1  0  0  0  0
 25 55  1  0  0  0  0
 26 27  1  0  0  0  0
 26 56  1  0  0  0  0
 26 57  1  0  0  0  0
 27 28  1  0  0  0  0
 27 31  1  0  0  0  0
 27 58  1  0  0  0  0
 28 39  1  0  0  0  0
 29 30  1  0  0  0  0
 29 32  2  0  0  0  0
 31 33  2  0  0  0  0
 31 34  1  0  0  0  0
 33 36  1  0  0  0  0
 33 59  1  0  0  0  0
 34 35  1  0  0  0  0
 34 37  2  0  0  0  0
 35 39  1  0  0  0  0
 35 60  1  0  0  0  0
 35 61  1  0  0  0  0
 36 38  2  0  0  0  0
 36 62  1  0  0  0  0
 37 38  1  0  0  0  0
 37 63  1  0  0  0  0
 38 64  1  0  0  0  0
 39 65  1  0  0  0  0
 39 66  1  0  0  0  0
M  CHG  1  14  -1
M  CHG  1  30  -1
M  END
> <rseq>
1

> <mseq>
513

> <S>
-7.419923

> <rmsd_refine>
1.139516

> <E_conf>
-193.1292

> <E_score1>
-13.13901

> <E_refine>
-46.01292

> <E_score2>
-7.419923

>  <$File>
outputs/pdb_4j58_cleaned.pdb_2024_06_17__22_47_40_V2_BS398_MIN1_/SDF/sdf_db.sdf

> <Rec_index>
1

>  <PLIF_raw>
[[2,13,30,30],[1056,954,1212,1212],[70,62,81,81],[3,2,2,7],[0.5,1,2.2,2.066431775]]

> <FP:PLIF>
20 3 17 18 24

>  <PLIF_ligidx>
[13,2,30,30,30]

$$$$
513
  MOE2022           3D

 65 68  0  0  1  0  0  0  0  0999 V2000
    2.4840   16.2960   20.7290 C   0  0  0  0  0  0  0  0  0  0  0  0
    1.2020   15.7990   20.9100 C   0  0  0  0  0  0  0  0  0  0  0  0
    2.7920   17.0250   19.5870 C   0  0  0  0  0  0  0  0  0  0  0  0
    0.2280   16.0200   19.9430 C   0  0  0  0  0  0  0  0  0  0  0  0
    0.5360   16.7490   18.7980 C   0  0  0  0  0  0  0  0  0  0  0  0
    1.8170   17.2680   18.6150 C   0  0  0  0  0  0  0  0  0  0  0  0
    2.1350   18.0660   17.3570 C   0  0  1  0  0  0  0  0  0  0  0  0
    3.1670   19.0790   17.6350 N   0  0  0  0  0  0  0  0  0  0  0  0
    2.4720   17.1330   16.1980 C   0  0  0  0  0  0  0  0  0  0  0  0
    3.9850   19.7040   16.7240 C   0  0  0  0  0  0  0  0  0  0  0  0
    1.6710   17.2120   15.1240 N   0  0  0  0  0  0  0  0  0  0  0  0
    3.6510   19.6930   15.5410 O   0  0  0  0  0  0  0  0  0  0  0  0
    5.2170   20.3290   17.2240 C   0  0  0  0  0  0  0  0  0  0  0  0
    3.4420   16.3730   16.2380 O   0  0  0  0  0  0  0  0  0  0  0  0
    1.9040   16.4800   13.8860 C   0  0  1  0  0  0  0  0  0  0  0  0
    0.6800   16.4390   12.9920 C   0  0  0  0  0  0  0  0  0  0  0  0
    2.9670   17.1190   12.9930 C   0  0  0  0  0  0  0  0  0  0  0  0
    5.6590   20.0650   18.5350 C   0  0  0  0  0  0  0  0  0  0  0  0
    1.2570   16.3140   11.5790 C   0  0  0  0  0  0  0  0  0  0  0  0
    6.0180   21.1780   16.4240 C   0  0  0  0  0  0  0  0  0  0  0  0
    2.6300   16.8520   11.5870 N   0  0  0  0  0  0  0  0  0  0  0  0
    6.8590   20.5890   18.9940 C   0  0  0  0  0  0  0  0  0  0  0  0
    5.6290   21.5390   15.1640 O   0  0  0  0  0  0  0  0  0  0  0  0
    3.6070   16.1620   10.8250 C   0  0  0  0  0  0  0  0  0  0  0  0
    7.6630   21.3740   18.1590 C   0  0  0  0  0  0  0  0  0  0  0  0
    8.8790   21.8430   18.5780 O   0  0  0  0  0  0  0  0  0  0  0  0
    7.2200   20.3210   20.2850 O   0  0  0  0  0  0  0  0  0  0  0  0
    7.2360   21.6860   16.8750 C   0  0  0  0  0  0  0  0  0  0  0  0
    4.2270   16.8380    9.7540 C   0  0  0  0  0  0  0  0  0  0  0  0
    4.0030   18.2580    9.4960 C   0  0  0  0  0  0  0  0  0  0  0  0
    3.9600   14.8210   11.1010 C   0  0  0  0  0  0  0  0  0  0  0  0
    3.3960   14.1720   12.1760 O   0  0  0  0  0  0  0  0  0  0  0  0
    5.1020   16.0960    8.9410 C   0  0  0  0  0  0  0  0  0  0  0  0
    4.8780   14.1290   10.3050 C   0  0  0  0  0  0  0  0  0  0  0  0
    3.6860   18.6360    8.3330 O   0  5  0  0  0  0  0  0  0  0  0  0
    5.2780   12.6920   10.5720 C   0  0  0  0  0  0  0  0  0  0  0  0
    4.1950   19.1030   10.4140 O   0  0  0  0  0  0  0  0  0  0  0  0
    5.6430   16.6550    7.8280 O   0  0  0  0  0  0  0  0  0  0  0  0
    5.4440   14.7800    9.2150 C   0  0  0  0  0  0  0  0  0  0  0  0
    3.2290   16.1170   21.4600 H   0  0  0  0  0  0  0  0  0  0  0  0
    0.9770   15.2540   21.7840 H   0  0  0  0  0  0  0  0  0  0  0  0
    3.7750   17.3930   19.4680 H   0  0  0  0  0  0  0  0  0  0  0  0
   -0.7510   15.6350   20.0770 H   0  0  0  0  0  0  0  0  0  0  0  0
   -0.2120   16.9110   18.0640 H   0  0  0  0  0  0  0  0  0  0  0  0
    1.2390   18.6130   17.0930 H   0  0  0  0  0  0  0  0  0  0  0  0
    3.3700   19.2190   18.6360 H   0  0  0  0  0  0  0  0  0  0  0  0
    0.9060   17.8680   15.1290 H   0  0  0  0  0  0  0  0  0  0  0  0
    2.2130   15.4580   14.1050 H   0  0  0  0  0  0  0  0  0  0  0  0
    0.0260   15.6040   13.2420 H   0  0  0  0  0  0  0  0  0  0  0  0
    0.1380   17.3840   13.0640 H   0  0  0  0  0  0  0  0  0  0  0  0
    2.9910   18.1900   13.1460 H   0  0  0  0  0  0  0  0  0  0  0  0
    3.9400   16.7480   13.2570 H   0  0  0  0  0  0  0  0  0  0  0  0
    5.0930   19.4550   19.1890 H   0  0  0  0  0  0  0  0  0  0  0  0
    1.2550   15.2770   11.2710 H   0  0  0  0  0  0  0  0  0  0  0  0
    0.6460   16.8460   10.8630 H   0  0  0  0  0  0  0  0  0  0  0  0
    4.7710   21.1180   14.9400 H   0  0  0  0  0  0  0  0  0  0  0  0
    9.1470   21.4690   19.4390 H   0  0  0  0  0  0  0  0  0  0  0  0
    8.0990   20.6930   20.4930 H   0  0  0  0  0  0  0  0  0  0  0  0
    7.8280   22.3010   16.2470 H   0  0  0  0  0  0  0  0  0  0  0  0
    3.8440   13.3160   12.3360 H   0  0  0  0  0  0  0  0  0  0  0  0
    5.9820   12.6440   11.4020 H   0  0  0  0  0  0  0  0  0  0  0  0
    4.4030   12.0870   10.8020 H   0  0  0  0  0  0  0  0  0  0  0  0
    5.7610   12.2510    9.7000 H   0  0  0  0  0  0  0  0  0  0  0  0
    5.2440   17.5430    7.7020 H   0  0  0  0  0  0  0  0  0  0  0  0
    6.1310   14.2750    8.5860 H   0  0  0  0  0  0  0  0  0  0  0  0
  1  2  2  0  0  0  0
  1  3  1  0  0  0  0
  1 40  1  0  0  0  0
  2  4  1  0  0  0  0
  2 41  1  0  0  0  0
  3  6  2  0  0  0  0
  3 42  1  0  0  0  0
  4  5  2  0  0  0  0
  4 43  1  0  0  0  0
  5  6  1  0  0  0  0
  5 44  1  0  0  0  0
  6  7  1  0  0  0  0
  7  8  1  0  0  0  0
  7  9  1  0  0  0  0
  7 45  1  0  0  0  0
  8 10  1  0  0  0  0
  8 46  1  0  0  0  0
  9 11  1  0  0  0  0
  9 14  2  0  0  0  0
 10 12  2  0  0  0  0
 10 13  1  0  0  0  0
 11 15  1  0  0  0  0
 11 47  1  0  0  0  0
 13 18  1  0  0  0  0
 13 20  2  0  0  0  0
 15 16  1  0  0  0  0
 15 17  1  0  0  0  0
 15 48  1  0  0  0  0
 16 19  1  0  0  0  0
 16 49  1  0  0  0  0
 16 50  1  0  0  0  0
 17 21  1  0  0  0  0
 17 51  1  0  0  0  0
 17 52  1  0  0  0  0
 18 22  2  0  0  0  0
 18 53  1  0  0  0  0
 19 21  1  0  0  0  0
 19 54  1  0  0  0  0
 19 55  1  0  0  0  0
 20 23  1  0  0  0  0
 20 28  1  0  0  0  0
 21 24  1  0  0  0  0
 22 25  1  0  0  0  0
 22 27  1  0  0  0  0
 23 56  1  0  0  0  0
 24 29  2  0  0  0  0
 24 31  1  0  0  0  0
 25 26  1  0  0  0  0
 25 28  2  0  0  0  0
 26 57  1  0  0  0  0
 27 58  1  0  0  0  0
 28 59  1  0  0  0  0
 29 30  1  0  0  0  0
 29 33  1  0  0  0  0
 30 35  1  0  0  0  0
 30 37  2  0  0  0  0
 31 32  1  0  0  0  0
 31 34  2  0  0  0  0
 32 60  1  0  0  0  0
 33 38  1  0  0  0  0
 33 39  2  0  0  0  0
 34 36  1  0  0  0  0
 34 39  1  0  0  0  0
 36 61  1  0  0  0  0
 36 62  1  0  0  0  0
 36 63  1  0  0  0  0
 38 64  1  0  0  0  0
 39 65  1  0  0  0  0
M  CHG  1  35  -1
M  END
> <rseq>
1

> <mseq>
514

> <S>
-7.716745

> <rmsd_refine>
1.710058

> <E_conf>
-87.71886

> <E_score1>
-11.92676

> <E_refine>
-50.21136

> <E_score2>
-7.716745

>  <$File>
outputs/pdb_4j58_cleaned.pdb_2024_06_17__22_47_40_V2_BS398_MIN1_/SDF/sdf_db.sdf

> <Rec_index>
1

>  <PLIF_raw>
[[8,32,14,37,37,26,26,26,26,26,26],[1504,1056,954,823,829,1651,1655,1659,1657,1653,1650],[101,70,62,54,54,112,112,112,112,112,112],[3,3,2,7,7,10,10,10,10,10,10],[0.8,2.3,2.6,1.050355618,4.131577138,1.9,1.9,1.9,1.9,1.9,1.9]]

> <FP:PLIF>
1 16 20 23 3 4 8 15 47

>  <PLIF_ligidx>
[[37,37],37,14,14,32,32,8,[26,26,26,26,26,26],[26,26,26,26,26,26]]

$$$$
514
  MOE2022           3D

 64 68  0  0  1  0  0  0  0  0999 V2000
    1.7810   16.3890   19.7690 C   0  0  0  0  0  0  0  0  0  0  0  0
    2.3590   16.9300   18.6220 C   0  0  0  0  0  0  0  0  0  0  0  0
    0.4290   16.0660   19.7810 C   0  0  0  0  0  0  0  0  0  0  0  0
   -0.3280   16.2930   18.6350 C   0  0  0  0  0  0  0  0  0  0  0  0
   -1.6520   15.9650   18.6260 O   0  0  0  0  0  0  0  0  0  0  0  0
    1.5930   17.1740   17.4770 C   0  0  0  0  0  0  0  0  0  0  0  0
    0.2370   16.8500   17.4910 C   0  0  0  0  0  0  0  0  0  0  0  0
    2.2150   17.7050   16.1900 C   0  0  1  0  0  0  0  0  0  0  0  0
    2.9930   18.9620   16.2570 N   0  0  0  0  0  0  0  0  0  0  0  0
    2.9200   19.8500   17.4500 C   0  0  0  0  0  0  0  0  0  0  0  0
    3.5280   19.5340   15.1040 C   0  0  0  0  0  0  0  0  0  0  0  0
    4.0860   20.6320   15.1490 O   0  0  0  0  0  0  0  0  0  0  0  0
    3.0110   16.6640   15.6340 O   0  0  0  0  0  0  0  0  0  0  0  0
    3.0700   16.5170   14.2800 C   0  0  0  0  0  0  0  0  0  0  0  0
    2.9590   15.2310   13.7650 C   0  0  0  0  0  0  0  0  0  0  0  0
    3.2780   17.6050   13.4230 C   0  0  0  0  0  0  0  0  0  0  0  0
    4.2330   20.0390   18.1980 C   0  0  0  0  0  0  0  0  0  0  0  0
    3.4330   18.9510   13.8500 N   0  0  0  0  0  0  0  0  0  0  0  0
    3.1190   15.0140   12.4000 C   0  0  0  0  0  0  0  0  0  0  0  0
    3.3660   16.0840   11.5410 C   0  0  0  0  0  0  0  0  0  0  0  0
    4.6170   21.3850   18.7760 C   0  0  0  0  0  0  0  0  0  0  0  0
    3.4160   17.3820   12.0510 C   0  0  0  0  0  0  0  0  0  0  0  0
    3.6280   15.8240   10.0680 C   0  0  0  0  0  0  0  0  0  0  0  0
    4.9630   19.1090   18.3840 O   0  0  0  0  0  0  0  0  0  0  0  0
    5.3300   22.3140   17.8030 C   0  0  0  0  0  0  0  0  0  0  0  0
    5.0300   15.3200    9.7850 C   0  0  0  0  0  0  0  0  0  0  0  0
    4.9180   23.6450   17.5960 C   0  0  0  0  0  0  0  0  0  0  0  0
    5.1510   14.1810    9.2840 O   0  0  0  0  0  0  0  0  0  0  0  0
    6.4530   21.8300   17.1300 C   0  0  0  0  0  0  0  0  0  0  0  0
    5.9880   16.0780   10.0540 O   0  5  0  0  0  0  0  0  0  0  0  0
    3.7740   24.2260   18.2940 C   0  0  0  0  0  0  0  0  0  0  0  0
    2.4660   23.8380   17.9800 C   0  0  0  0  0  0  0  0  0  0  0  0
    5.6400   24.4490   16.7050 C   0  0  0  0  0  0  0  0  0  0  0  0
    1.3850   24.3750   18.6690 C   0  0  0  0  0  0  0  0  0  0  0  0
    1.5960   25.3160   19.6720 C   0  0  0  0  0  0  0  0  0  0  0  0
    3.9720   25.1840   19.2950 C   0  0  0  0  0  0  0  0  0  0  0  0
    2.8900   25.7210   19.9840 C   0  0  0  0  0  0  0  0  0  0  0  0
    7.1610   22.6420   16.2510 C   0  0  0  0  0  0  0  0  0  0  0  0
    6.7510   23.9520   16.0380 C   0  0  0  0  0  0  0  0  0  0  0  0
    2.3760   16.2190   20.6280 H   0  0  0  0  0  0  0  0  0  0  0  0
    3.3910   17.1510   18.6220 H   0  0  0  0  0  0  0  0  0  0  0  0
   -0.0160   15.6530   20.6480 H   0  0  0  0  0  0  0  0  0  0  0  0
   -1.9250   15.5780   19.4790 H   0  0  0  0  0  0  0  0  0  0  0  0
   -0.3640   17.0100   16.6320 H   0  0  0  0  0  0  0  0  0  0  0  0
    1.4010   17.8770   15.4970 H   0  0  0  0  0  0  0  0  0  0  0  0
    2.5530   20.8200   17.1410 H   0  0  0  0  0  0  0  0  0  0  0  0
    2.1580   19.5210   18.1390 H   0  0  0  0  0  0  0  0  0  0  0  0
    2.7640   14.4160   14.4090 H   0  0  0  0  0  0  0  0  0  0  0  0
    3.6620   19.6070   13.0890 H   0  0  0  0  0  0  0  0  0  0  0  0
    3.0660   14.0270   12.0150 H   0  0  0  0  0  0  0  0  0  0  0  0
    3.7400   21.8420   19.2050 H   0  0  0  0  0  0  0  0  0  0  0  0
    5.2770   21.2210   19.6170 H   0  0  0  0  0  0  0  0  0  0  0  0
    3.5940   18.1970   11.3980 H   0  0  0  0  0  0  0  0  0  0  0  0
    2.9030   15.1130    9.6960 H   0  0  0  0  0  0  0  0  0  0  0  0
    3.4580   16.7250    9.4950 H   0  0  0  0  0  0  0  0  0  0  0  0
    6.7790   20.8330   17.2870 H   0  0  0  0  0  0  0  0  0  0  0  0
    2.2980   23.1280   17.2110 H   0  0  0  0  0  0  0  0  0  0  0  0
    5.3350   25.4500   16.5380 H   0  0  0  0  0  0  0  0  0  0  0  0
    0.3980   24.0700   18.4300 H   0  0  0  0  0  0  0  0  0  0  0  0
    0.7700   25.7290   20.1920 H   0  0  0  0  0  0  0  0  0  0  0  0
    4.9540   25.5040   19.5270 H   0  0  0  0  0  0  0  0  0  0  0  0
    3.0490   26.4420   20.7440 H   0  0  0  0  0  0  0  0  0  0  0  0
    8.0120   22.2630   15.7470 H   0  0  0  0  0  0  0  0  0  0  0  0
    7.2870   24.5730   15.3660 H   0  0  0  0  0  0  0  0  0  0  0  0
  1  2  2  0  0  0  0
  1  3  1  0  0  0  0
  1 40  1  0  0  0  0
  2  6  1  0  0  0  0
  2 41  1  0  0  0  0
  3  4  2  0  0  0  0
  3 42  1  0  0  0  0
  4  5  1  0  0  0  0
  4  7  1  0  0  0  0
  5 43  1  0  0  0  0
  6  7  2  0  0  0  0
  6  8  1  0  0  0  0
  7 44  1  0  0  0  0
  8  9  1  0  0  0  0
  8 13  1  0  0  0  0
  8 45  1  0  0  0  0
  9 10  1  0  0  0  0
  9 11  1  0  0  0  0
 10 17  1  0  0  0  0
 10 46  1  0  0  0  0
 10 47  1  0  0  0  0
 11 12  2  0  0  0  0
 11 18  1  0  0  0  0
 13 14  1  0  0  0  0
 14 15  2  0  0  0  0
 14 16  1  0  0  0  0
 15 19  1  0  0  0  0
 15 48  1  0  0  0  0
 16 18  1  0  0  0  0
 16 22  2  0  0  0  0
 17 21  1  0  0  0  0
 17 24  2  0  0  0  0
 18 49  1  0  0  0  0
 19 20  2  0  0  0  0
 19 50  1  0  0  0  0
 20 22  1  0  0  0  0
 20 23  1  0  0  0  0
 21 25  1  0  0  0  0
 21 51  1  0  0  0  0
 21 52  1  0  0  0  0
 22 53  1  0  0  0  0
 23 26  1  0  0  0  0
 23 54  1  0  0  0  0
 23 55  1  0  0  0  0
 25 27  1  0  0  0  0
 25 29  2  0  0  0  0
 26 28  2  0  0  0  0
 26 30  1  0  0  0  0
 27 31  1  0  0  0  0
 27 33  2  0  0  0  0
 29 38  1  0  0  0  0
 29 56  1  0  0  0  0
 31 32  1  0  0  0  0
 31 36  2  0  0  0  0
 32 34  2  0  0  0  0
 32 57  1  0  0  0  0
 33 39  1  0  0  0  0
 33 58  1  0  0  0  0
 34 35  1  0  0  0  0
 34 59  1  0  0  0  0
 35 37  2  0  0  0  0
 35 60  1  0  0  0  0
 36 37  1  0  0  0  0
 36 61  1  0  0  0  0
 37 62  1  0  0  0  0
 38 39  2  0  0  0  0
 38 63  1  0  0  0  0
 39 64  1  0  0  0  0
M  CHG  1  30  -1
M  END
> <rseq>
1

> <mseq>
515

> <S>
-6.679536

> <rmsd_refine>
1.717701

> <E_conf>
-157.1518

> <E_score1>
-12.12015

> <E_refine>
-40.45392

> <E_score2>
-6.679536

>  <$File>
outputs/pdb_4j58_cleaned.pdb_2024_06_17__22_47_40_V2_BS398_MIN1_/SDF/sdf_db.sdf

> <Rec_index>
1

>  <PLIF_raw>
[[30,30,30],[823,823,829],[54,54,54],[2,7,7],[5.8,4.841098758,0.6902074213]]

> <FP:PLIF>
6 19 1 16

>  <PLIF_ligidx>
[30,30,[30,30],30]

$$$$
515
  MOE2022           3D

 65 69  0  0  1  0  0  0  0  0999 V2000
    2.5870   16.2240   20.9990 C   0  0  0  0  0  0  0  0  0  0  0  0
    1.3060   15.8440   21.3620 C   0  0  0  0  0  0  0  0  0  0  0  0
    2.8130   16.8130   19.7650 C   0  0  0  0  0  0  0  0  0  0  0  0
    0.2500   16.0190   20.4730 C   0  0  0  0  0  0  0  0  0  0  0  0
    0.4810   16.5910   19.2240 C   0  0  0  0  0  0  0  0  0  0  0  0
    1.7620   17.0100   18.8690 C   0  0  0  0  0  0  0  0  0  0  0  0
    2.0230   17.6620   17.5220 C   0  0  1  0  0  0  0  0  0  0  0  0
    2.9510   18.7990   17.7010 N   0  0  0  0  0  0  0  0  0  0  0  0
    2.5000   16.6300   16.5040 C   0  0  0  0  0  0  0  0  0  0  0  0
    3.7930   19.3460   16.7580 C   0  0  0  0  0  0  0  0  0  0  0  0
    1.9160   16.6670   15.3000 N   0  0  0  0  0  0  0  0  0  0  0  0
    3.5380   19.1660   15.5700 O   0  0  0  0  0  0  0  0  0  0  0  0
    4.9590   20.0960   17.2310 C   0  0  0  0  0  0  0  0  0  0  0  0
    3.4470   15.8800   16.7340 O   0  0  0  0  0  0  0  0  0  0  0  0
    2.5390   16.1100   14.1080 C   0  0  1  0  0  0  0  0  0  0  0  0
    1.8340   14.8590   13.6100 C   0  0  0  0  0  0  0  0  0  0  0  0
    2.4830   17.1050   12.9510 C   0  0  0  0  0  0  0  0  0  0  0  0
    5.4780   19.8540   18.5170 C   0  0  0  0  0  0  0  0  0  0  0  0
    1.1090   15.2900   12.3320 C   0  0  1  0  0  0  0  0  0  0  0  0
    5.6230   21.0490   16.4220 C   0  0  0  0  0  0  0  0  0  0  0  0
    1.8070   16.4770   11.8080 N   0  0  0  0  0  0  0  0  0  0  0  0
    6.6200   20.5160   18.9490 C   0  0  0  0  0  0  0  0  0  0  0  0
    5.1620   21.3630   15.1740 O   0  0  0  0  0  0  0  0  0  0  0  0
    2.6070   16.3540   10.6410 C   0  0  0  0  0  0  0  0  0  0  0  0
    7.2750   21.4290   18.1170 C   0  0  0  0  0  0  0  0  0  0  0  0
    8.4190   22.0430   18.5370 O   0  0  0  0  0  0  0  0  0  0  0  0
    7.1020   20.2600   20.2050 O   0  0  0  0  0  0  0  0  0  0  0  0
    6.7740   21.7090   16.8520 C   0  0  0  0  0  0  0  0  0  0  0  0
    3.2180   17.4890   10.0590 C   0  0  0  0  0  0  0  0  0  0  0  0
    2.8270   15.0840   10.0720 C   0  0  0  0  0  0  0  0  0  0  0  0
    2.9760   18.8490   10.5290 C   0  0  0  0  0  0  0  0  0  0  0  0
    4.0880   17.2980    8.9770 C   0  0  0  0  0  0  0  0  0  0  0  0
    3.9580   19.5430   10.9100 O   0  0  0  0  0  0  0  0  0  0  0  0
    1.8060   19.3160   10.5500 O   0  5  0  0  0  0  0  0  0  0  0  0
    4.3260   16.0360    8.4470 C   0  0  0  0  0  0  0  0  0  0  0  0
    5.2680   15.8870    7.2770 C   0  0  0  0  0  0  0  0  0  0  0  0
    2.1920   13.9590   10.5700 O   0  0  0  0  0  0  0  0  0  0  0  0
    0.9620   14.1750   11.2890 C   0  0  0  0  0  0  0  0  0  0  0  0
    3.6890   14.9230    8.9970 C   0  0  0  0  0  0  0  0  0  0  0  0
    3.3930   16.0680   21.6650 H   0  0  0  0  0  0  0  0  0  0  0  0
    1.1520   15.4280   22.3180 H   0  0  0  0  0  0  0  0  0  0  0  0
    3.7940   17.1080   19.5110 H   0  0  0  0  0  0  0  0  0  0  0  0
   -0.7290   15.7210   20.7440 H   0  0  0  0  0  0  0  0  0  0  0  0
   -0.3240   16.7140   18.5470 H   0  0  0  0  0  0  0  0  0  0  0  0
    1.0890   18.0780   17.1680 H   0  0  0  0  0  0  0  0  0  0  0  0
    3.0850   19.0890   18.6830 H   0  0  0  0  0  0  0  0  0  0  0  0
    1.1490   17.3050   15.1500 H   0  0  0  0  0  0  0  0  0  0  0  0
    3.5870   15.8760   14.2960 H   0  0  0  0  0  0  0  0  0  0  0  0
    2.5900   14.1110   13.3650 H   0  0  0  0  0  0  0  0  0  0  0  0
    1.1400   14.4510   14.3450 H   0  0  0  0  0  0  0  0  0  0  0  0
    1.9520   18.0040   13.2340 H   0  0  0  0  0  0  0  0  0  0  0  0
    3.4900   17.4160   12.7070 H   0  0  0  0  0  0  0  0  0  0  0  0
    5.0120   19.1570   19.1630 H   0  0  0  0  0  0  0  0  0  0  0  0
    0.1150   15.6050   12.6220 H   0  0  0  0  0  0  0  0  0  0  0  0
    4.3730   20.8250   14.9480 H   0  0  0  0  0  0  0  0  0  0  0  0
    8.6800   21.6940   19.4130 H   0  0  0  0  0  0  0  0  0  0  0  0
    6.6250   19.5090   20.6080 H   0  0  0  0  0  0  0  0  0  0  0  0
    7.2610   22.4100   16.2240 H   0  0  0  0  0  0  0  0  0  0  0  0
    4.5680   18.1410    8.5490 H   0  0  0  0  0  0  0  0  0  0  0  0
    5.0230   16.6090    6.4970 H   0  0  0  0  0  0  0  0  0  0  0  0
    6.2910   16.0660    7.6040 H   0  0  0  0  0  0  0  0  0  0  0  0
    5.2020   14.8880    6.8450 H   0  0  0  0  0  0  0  0  0  0  0  0
    0.6560   13.2430   11.7610 H   0  0  0  0  0  0  0  0  0  0  0  0
    0.2010   14.4630   10.5640 H   0  0  0  0  0  0  0  0  0  0  0  0
    3.8560   13.9570    8.5950 H   0  0  0  0  0  0  0  0  0  0  0  0
  1  2  2  0  0  0  0
  1  3  1  0  0  0  0
  1 40  1  0  0  0  0
  2  4  1  0  0  0  0
  2 41  1  0  0  0  0
  3  6  2  0  0  0  0
  3 42  1  0  0  0  0
  4  5  2  0  0  0  0
  4 43  1  0  0  0  0
  5  6  1  0  0  0  0
  5 44  1  0  0  0  0
  6  7  1  0  0  0  0
  7  8  1  0  0  0  0
  7  9  1  0  0  0  0
  7 45  1  0  0  0  0
  8 10  1  0  0  0  0
  8 46  1  0  0  0  0
  9 11  1  0  0  0  0
  9 14  2  0  0  0  0
 10 12  2  0  0  0  0
 10 13  1  0  0  0  0
 11 15  1  0  0  0  0
 11 47  1  0  0  0  0
 13 18  1  0  0  0  0
 13 20  2  0  0  0  0
 15 16  1  0  0  0  0
 15 17  1  0  0  0  0
 15 48  1  0  0  0  0
 16 19  1  0  0  0  0
 16 49  1  0  0  0  0
 16 50  1  0  0  0  0
 17 21  1  0  0  0  0
 17 51  1  0  0  0  0
 17 52  1  0  0  0  0
 18 22  2  0  0  0  0
 18 53  1  0  0  0  0
 19 21  1  0  0  0  0
 19 38  1  0  0  0  0
 19 54  1  0  0  0  0
 20 23  1  0  0  0  0
 20 28  1  0  0  0  0
 21 24  1  0  0  0  0
 22 25  1  0  0  0  0
 22 27  1  0  0  0  0
 23 55  1  0  0  0  0
 24 29  1  0  0  0  0
 24 30  2  0  0  0  0
 25 26  1  0  0  0  0
 25 28  2  0  0  0  0
 26 56  1  0  0  0  0
 27 57  1  0  0  0  0
 28 58  1  0  0  0  0
 29 31  1  0  0  0  0
 29 32  2  0  0  0  0
 30 37  1  0  0  0  0
 30 39  1  0  0  0  0
 31 33  2  0  0  0  0
 31 34  1  0  0  0  0
 32 35  1  0  0  0  0
 32 59  1  0  0  0  0
 35 36  1  0  0  0  0
 35 39  2  0  0  0  0
 36 60  1  0  0  0  0
 36 61  1  0  0  0  0
 36 62  1  0  0  0  0
 37 38  1  0  0  0  0
 38 63  1  0  0  0  0
 38 64  1  0  0  0  0
 39 65  1  0  0  0  0
M  CHG  1  34  -1
M  END
> <rseq>
1

> <mseq>
516

> <S>
-7.513745

> <rmsd_refine>
1.405551

> <E_conf>
-47.61744

> <E_score1>
-12.10912

> <E_refine>
-41.0425

> <E_score2>
-7.513745

>  <$File>
outputs/pdb_4j58_cleaned.pdb_2024_06_17__22_47_40_V2_BS398_MIN1_/SDF/sdf_db.sdf

> <Rec_index>
1

>  <PLIF_raw>
[[8,14,33,33,26,26,26,26,26,26],[1504,954,823,829,1651,1655,1659,1657,1653,1650],[101,62,54,54,112,112,112,112,112,112],[3,2,7,7,10,10,10,10,10,10],[1.1,1.8,0.7489395528,4.274536456,2.1,2.1,2.1,2.1,2.1,2.1]]

> <FP:PLIF>
1 16 20 23 8 15 47

>  <PLIF_ligidx>
[[33,33],33,14,14,8,[26,26,26,26,26,26],[26,26,26,26,26,26]]

$$$$
516
  MOE2022           3D

 66 70  0  0  1  0  0  0  0  0999 V2000
    2.2340   16.3970   20.5300 C   0  0  0  0  0  0  0  0  0  0  0  0
    0.9530   15.8840   20.6840 C   0  0  0  0  0  0  0  0  0  0  0  0
    2.6360   16.9040   19.3010 C   0  0  0  0  0  0  0  0  0  0  0  0
    0.0790   15.8630   19.6030 C   0  0  0  0  0  0  0  0  0  0  0  0
    0.4850   16.3640   18.3700 C   0  0  0  0  0  0  0  0  0  0  0  0
    1.7650   16.8950   18.2080 C   0  0  0  0  0  0  0  0  0  0  0  0
    2.1800   17.4370   16.8450 C   0  0  1  0  0  0  0  0  0  0  0  0
    3.1530   18.5280   16.9490 N   0  0  0  0  0  0  0  0  0  0  0  0
    2.7230   16.3460   15.9350 C   0  0  0  0  0  0  0  0  0  0  0  0
    2.8620   19.7780   17.4380 C   0  0  0  0  0  0  0  0  0  0  0  0
    2.1140   16.2010   14.7510 N   0  0  0  0  0  0  0  0  0  0  0  0
    1.6830   20.1270   17.4340 O   0  0  0  0  0  0  0  0  0  0  0  0
    3.9740   20.6020   17.9350 C   0  0  0  0  0  0  0  0  0  0  0  0
    3.7320   15.7070   16.2310 O   0  0  0  0  0  0  0  0  0  0  0  0
    2.6090   15.3680   13.6610 C   0  0  1  0  0  0  0  0  0  0  0  0
    1.6970   14.1910   13.3610 C   0  0  0  0  0  0  0  0  0  0  0  0
    2.6980   16.1360   12.3480 C   0  0  0  0  0  0  0  0  0  0  0  0
    5.2680   20.0540   18.0370 C   0  0  0  0  0  0  0  0  0  0  0  0
    1.4780   14.2050   11.8390 C   0  0  1  0  0  0  0  0  0  0  0  0
    3.8010   21.9460   18.3450 C   0  0  0  0  0  0  0  0  0  0  0  0
    2.3820   15.2130   11.2540 N   0  0  0  0  0  0  0  0  0  0  0  0
    6.3230   20.8120   18.5270 C   0  0  0  0  0  0  0  0  0  0  0  0
    2.5800   22.5540   18.2930 O   0  0  0  0  0  0  0  0  0  0  0  0
    3.4980   14.7750   10.4860 C   0  0  0  0  0  0  0  0  0  0  0  0
    6.1190   22.1340   18.9260 C   0  0  0  0  0  0  0  0  0  0  0  0
    7.1590   22.8600   19.4190 O   0  0  0  0  0  0  0  0  0  0  0  0
    7.5740   20.2470   18.6130 O   0  0  0  0  0  0  0  0  0  0  0  0
    4.8600   22.7120   18.8280 C   0  0  0  0  0  0  0  0  0  0  0  0
    4.2840   15.7100    9.7770 C   0  0  0  0  0  0  0  0  0  0  0  0
    3.8260   13.4020   10.4320 C   0  0  0  0  0  0  0  0  0  0  0  0
    3.9470   17.1250    9.7170 C   0  0  0  0  0  0  0  0  0  0  0  0
    5.4080   15.2250    9.0930 C   0  0  0  0  0  0  0  0  0  0  0  0
    4.5900   17.9420   10.4340 O   0  0  0  0  0  0  0  0  0  0  0  0
    3.0210   17.5170    8.9580 O   0  5  0  0  0  0  0  0  0  0  0  0
    2.9950   12.4610   11.0220 O   0  0  0  0  0  0  0  0  0  0  0  0
    6.1790   16.0830    8.3670 O   0  0  0  0  0  0  0  0  0  0  0  0
    4.9730   12.9560    9.7750 C   0  0  0  0  0  0  0  0  0  0  0  0
    1.6170   12.8330   11.1650 C   0  0  0  0  0  0  0  0  0  0  0  0
    5.3710   11.4940    9.7750 C   0  0  0  0  0  0  0  0  0  0  0  0
    5.7650   13.8810    9.1040 C   0  0  0  0  0  0  0  0  0  0  0  0
    2.9030   16.4030   21.3500 H   0  0  0  0  0  0  0  0  0  0  0  0
    0.6470   15.5140   21.6240 H   0  0  0  0  0  0  0  0  0  0  0  0
    3.6110   17.3020   19.2070 H   0  0  0  0  0  0  0  0  0  0  0  0
   -0.8980   15.4680   19.7170 H   0  0  0  0  0  0  0  0  0  0  0  0
   -0.1880   16.3420   17.5510 H   0  0  0  0  0  0  0  0  0  0  0  0
    1.2910   17.8430   16.3790 H   0  0  0  0  0  0  0  0  0  0  0  0
    4.1400   18.2370   16.9330 H   0  0  0  0  0  0  0  0  0  0  0  0
    1.3010   16.7650   14.5520 H   0  0  0  0  0  0  0  0  0  0  0  0
    3.6060   14.9820   13.8760 H   0  0  0  0  0  0  0  0  0  0  0  0
    2.1830   13.2680   13.6740 H   0  0  0  0  0  0  0  0  0  0  0  0
    0.7400   14.2960   13.8710 H   0  0  0  0  0  0  0  0  0  0  0  0
    1.9830   16.9490   12.3350 H   0  0  0  0  0  0  0  0  0  0  0  0
    3.6770   16.5810   12.2630 H   0  0  0  0  0  0  0  0  0  0  0  0
    5.4540   19.0570   17.7500 H   0  0  0  0  0  0  0  0  0  0  0  0
    0.4660   14.5470   11.6690 H   0  0  0  0  0  0  0  0  0  0  0  0
    1.8980   21.9130   17.9960 H   0  0  0  0  0  0  0  0  0  0  0  0
    7.9710   22.3120   19.4070 H   0  0  0  0  0  0  0  0  0  0  0  0
    7.5820   19.3540   18.2160 H   0  0  0  0  0  0  0  0  0  0  0  0
    4.7050   23.7190   19.1190 H   0  0  0  0  0  0  0  0  0  0  0  0
    6.8810   15.6020    7.8910 H   0  0  0  0  0  0  0  0  0  0  0  0
    1.0980   12.0590   11.7260 H   0  0  0  0  0  0  0  0  0  0  0  0
    1.1820   12.8820   10.1660 H   0  0  0  0  0  0  0  0  0  0  0  0
    5.7200   11.2050   10.7670 H   0  0  0  0  0  0  0  0  0  0  0  0
    4.5250   10.8650    9.4980 H   0  0  0  0  0  0  0  0  0  0  0  0
    6.1760   11.3040    9.0650 H   0  0  0  0  0  0  0  0  0  0  0  0
    6.6290   13.5590    8.5900 H   0  0  0  0  0  0  0  0  0  0  0  0
  1  2  2  0  0  0  0
  1  3  1  0  0  0  0
  1 41  1  0  0  0  0
  2  4  1  0  0  0  0
  2 42  1  0  0  0  0
  3  6  2  0  0  0  0
  3 43  1  0  0  0  0
  4  5  2  0  0  0  0
  4 44  1  0  0  0  0
  5  6  1  0  0  0  0
  5 45  1  0  0  0  0
  6  7  1  0  0  0  0
  7  8  1  0  0  0  0
  7  9  1  0  0  0  0
  7 46  1  0  0  0  0
  8 10  1  0  0  0  0
  8 47  1  0  0  0  0
  9 11  1  0  0  0  0
  9 14  2  0  0  0  0
 10 12  2  0  0  0  0
 10 13  1  0  0  0  0
 11 15  1  0  0  0  0
 11 48  1  0  0  0  0
 13 18  1  0  0  0  0
 13 20  2  0  0  0  0
 15 16  1  0  0  0  0
 15 17  1  0  0  0  0
 15 49  1  0  0  0  0
 16 19  1  0  0  0  0
 16 50  1  0  0  0  0
 16 51  1  0  0  0  0
 17 21  1  0  0  0  0
 17 52  1  0  0  0  0
 17 53  1  0  0  0  0
 18 22  2  0  0  0  0
 18 54  1  0  0  0  0
 19 21  1  0  0  0  0
 19 38  1  0  0  0  0
 19 55  1  0  0  0  0
 20 23  1  0  0  0  0
 20 28  1  0  0  0  0
 21 24  1  0  0  0  0
 22 25  1  0  0  0  0
 22 27  1  0  0  0  0
 23 56  1  0  0  0  0
 24 29  2  0  0  0  0
 24 30  1  0  0  0  0
 25 26  1  0  0  0  0
 25 28  2  0  0  0  0
 26 57  1  0  0  0  0
 27 58  1  0  0  0  0
 28 59  1  0  0  0  0
 29 31  1  0  0  0  0
 29 32  1  0  0  0  0
 30 35  1  0  0  0  0
 30 37  2  0  0  0  0
 31 33  2  0  0  0  0
 31 34  1  0  0  0  0
 32 36  1  0  0  0  0
 32 40  2  0  0  0  0
 35 38  1  0  0  0  0
 36 60  1  0  0  0  0
 37 39  1  0  0  0  0
 37 40  1  0  0  0  0
 38 61  1  0  0  0  0
 38 62  1  0  0  0  0
 39 63  1  0  0  0  0
 39 64  1  0  0  0  0
 39 65  1  0  0  0  0
 40 66  1  0  0  0  0
M  CHG  1  34  -1
M  END
> <rseq>
1

> <mseq>
517

> <S>
-8.284912

> <rmsd_refine>
1.547306

> <E_conf>
-72.56501

> <E_score1>
-12.18616

> <E_refine>
-42.96838

> <E_score2>
-8.284912

>  <$File>
outputs/pdb_4j58_cleaned.pdb_2024_06_17__22_47_40_V2_BS398_MIN1_/SDF/sdf_db.sdf

> <Rec_index>
1

>  <PLIF_raw>
[[14,33,33,33,1,3,6,5,4,2],[954,823,823,829,1519,1519,1519,1519,1519,1519],[62,54,54,54,102,102,102,102,102,102],[2,2,7,7,10,10,10,10,10,10],[1.4,1.3,4.107399275,4.153887505,0.8,0.8,0.8,0.8,0.8,0.8]]

> <FP:PLIF>
6 1 16 20 22

>  <PLIF_ligidx>
[33,[33,33],[33,33],14,[1,3,6,5,4,2]]

$$$$
517
  MOE2022           3D

 66 71  0  0  1  0  0  0  0  0999 V2000
    2.4880   16.4860   20.1390 C   0  0  0  0  0  0  0  0  0  0  0  0
    2.5710   16.9490   18.8280 C   0  0  0  0  0  0  0  0  0  0  0  0
    1.2780   16.0270   20.6390 C   0  0  0  0  0  0  0  0  0  0  0  0
    0.1610   16.0380   19.8100 C   0  0  0  0  0  0  0  0  0  0  0  0
   -1.0210   15.5610   20.2980 O   0  0  0  0  0  0  0  0  0  0  0  0
    1.4450   16.9860   18.0010 C   0  0  0  0  0  0  0  0  0  0  0  0
    0.2290   16.5190   18.5010 C   0  0  0  0  0  0  0  0  0  0  0  0
    1.5470   17.4950   16.5610 C   0  0  1  0  0  0  0  0  0  0  0  0
    1.8130   18.9330   16.3850 N   0  0  0  0  0  0  0  0  0  0  0  0
    2.5480   19.7300   17.3910 C   0  0  0  0  0  0  0  0  0  0  0  0
    1.4870   19.5530   15.1930 C   0  0  0  0  0  0  0  0  0  0  0  0
    1.3590   20.7760   15.1190 O   0  0  0  0  0  0  0  0  0  0  0  0
    2.5140   16.7390   15.8410 O   0  0  0  0  0  0  0  0  0  0  0  0
    2.5220   16.6720   14.4670 C   0  0  0  0  0  0  0  0  0  0  0  0
    3.1350   15.5510   13.9250 C   0  0  0  0  0  0  0  0  0  0  0  0
    1.9620   17.6420   13.6150 C   0  0  0  0  0  0  0  0  0  0  0  0
    4.0660   19.7060   17.2700 C   0  0  0  0  0  0  0  0  0  0  0  0
    1.2800   18.8150   14.0440 N   0  0  0  0  0  0  0  0  0  0  0  0
    3.2270   15.3940   12.5480 C   0  0  0  0  0  0  0  0  0  0  0  0
    2.7210   16.3710   11.6940 C   0  0  0  0  0  0  0  0  0  0  0  0
    4.9340   19.8420   18.5120 C   0  0  0  0  0  0  0  0  0  0  0  0
    2.0730   17.4840   12.2300 C   0  0  0  0  0  0  0  0  0  0  0  0
    2.8970   16.2110   10.1930 C   0  0  0  0  0  0  0  0  0  0  0  0
    4.5850   19.5580   16.1990 O   0  0  0  0  0  0  0  0  0  0  0  0
    6.1470   20.7500   18.3690 C   0  0  0  0  0  0  0  0  0  0  0  0
    4.3200   15.8940    9.7750 C   0  0  0  0  0  0  0  0  0  0  0  0
    6.0780   22.0740   17.8780 C   0  0  0  0  0  0  0  0  0  0  0  0
    4.5130   14.8660    9.0890 O   0  0  0  0  0  0  0  0  0  0  0  0
    7.3900   20.2040   18.6990 C   0  0  0  0  0  0  0  0  0  0  0  0
    5.2230   16.6800   10.1350 O   0  5  0  0  0  0  0  0  0  0  0  0
    4.8480   22.8680   17.7120 C   0  0  0  0  0  0  0  0  0  0  0  0
    4.8320   23.8600   16.7220 C   0  0  0  0  0  0  0  0  0  0  0  0
    7.2900   22.6890   17.5130 C   0  0  0  0  0  0  0  0  0  0  0  0
    3.6840   24.6070   16.4790 C   0  0  0  0  0  0  0  0  0  0  0  0
    2.5470   24.4130   17.2550 C   0  0  0  0  0  0  0  0  0  0  0  0
    3.7170   22.7420   18.5340 C   0  0  0  0  0  0  0  0  0  0  0  0
    2.5720   23.4920   18.2940 C   0  0  0  0  0  0  0  0  0  0  0  0
    8.5680   20.9060   18.4680 C   0  0  0  0  0  0  0  0  0  0  0  0
    7.2770   23.8480   16.7700 O   0  0  0  0  0  0  0  0  0  0  0  0
    8.5230   22.1420   17.8430 C   0  0  0  0  0  0  0  0  0  0  0  0
    6.1070   24.1250   15.9550 C   0  0  0  0  0  0  0  0  0  0  0  0
    3.3510   16.4790   20.7540 H   0  0  0  0  0  0  0  0  0  0  0  0
    3.4990   17.2830   18.4570 H   0  0  0  0  0  0  0  0  0  0  0  0
    1.2090   15.6730   21.6340 H   0  0  0  0  0  0  0  0  0  0  0  0
   -1.7210   15.6250   19.6190 H   0  0  0  0  0  0  0  0  0  0  0  0
   -0.6370   16.5230   17.8910 H   0  0  0  0  0  0  0  0  0  0  0  0
    0.5940   17.2840   16.0910 H   0  0  0  0  0  0  0  0  0  0  0  0
    2.2160   20.7580   17.3720 H   0  0  0  0  0  0  0  0  0  0  0  0
    2.2520   19.4110   18.3720 H   0  0  0  0  0  0  0  0  0  0  0  0
    3.5450   14.8210   14.5620 H   0  0  0  0  0  0  0  0  0  0  0  0
    0.8120   19.3450   13.2930 H   0  0  0  0  0  0  0  0  0  0  0  0
    3.7010   14.5340   12.1500 H   0  0  0  0  0  0  0  0  0  0  0  0
    4.3650   20.1330   19.3730 H   0  0  0  0  0  0  0  0  0  0  0  0
    5.2590   18.8520   18.7860 H   0  0  0  0  0  0  0  0  0  0  0  0
    1.6730   18.2220   11.5830 H   0  0  0  0  0  0  0  0  0  0  0  0
    2.2330   15.4330    9.8430 H   0  0  0  0  0  0  0  0  0  0  0  0
    2.5810   17.1090    9.6820 H   0  0  0  0  0  0  0  0  0  0  0  0
    7.4510   19.2340   19.1200 H   0  0  0  0  0  0  0  0  0  0  0  0
    3.6750   25.3360   15.7090 H   0  0  0  0  0  0  0  0  0  0  0  0
    1.6710   24.9780   17.0660 H   0  0  0  0  0  0  0  0  0  0  0  0
    3.7230   22.0880   19.3600 H   0  0  0  0  0  0  0  0  0  0  0  0
    1.7170   23.3650   18.9090 H   0  0  0  0  0  0  0  0  0  0  0  0
    9.5000   20.4830   18.7410 H   0  0  0  0  0  0  0  0  0  0  0  0
    9.4160   22.6550   17.6040 H   0  0  0  0  0  0  0  0  0  0  0  0
    6.1450   23.5050   15.0700 H   0  0  0  0  0  0  0  0  0  0  0  0
    6.1530   25.1530   15.6240 H   0  0  0  0  0  0  0  0  0  0  0  0
  1  2  2  0  0  0  0
  1  3  1  0  0  0  0
  1 42  1  0  0  0  0
  2  6  1  0  0  0  0
  2 43  1  0  0  0  0
  3  4  2  0  0  0  0
  3 44  1  0  0  0  0
  4  5  1  0  0  0  0
  4  7  1  0  0  0  0
  5 45  1  0  0  0  0
  6  7  2  0  0  0  0
  6  8  1  0  0  0  0
  7 46  1  0  0  0  0
  8  9  1  0  0  0  0
  8 13  1  0  0  0  0
  8 47  1  0  0  0  0
  9 10  1  0  0  0  0
  9 11  1  0  0  0  0
 10 17  1  0  0  0  0
 10 48  1  0  0  0  0
 10 49  1  0  0  0  0
 11 12  2  0  0  0  0
 11 18  1  0  0  0  0
 13 14  1  0  0  0  0
 14 15  2  0  0  0  0
 14 16  1  0  0  0  0
 15 19  1  0  0  0  0
 15 50  1  0  0  0  0
 16 18  1  0  0  0  0
 16 22  2  0  0  0  0
 17 21  1  0  0  0  0
 17 24  2  0  0  0  0
 18 51  1  0  0  0  0
 19 20  2  0  0  0  0
 19 52  1  0  0  0  0
 20 22  1  0  0  0  0
 20 23  1  0  0  0  0
 21 25  1  0  0  0  0
 21 53  1  0  0  0  0
 21 54  1  0  0  0  0
 22 55  1  0  0  0  0
 23 26  1  0  0  0  0
 23 56  1  0  0  0  0
 23 57  1  0  0  0  0
 25 27  2  0  0  0  0
 25 29  1  0  0  0  0
 26 28  2  0  0  0  0
 26 30  1  0  0  0  0
 27 31  1  0  0  0  0
 27 33  1  0  0  0  0
 29 38  2  0  0  0  0
 29 58  1  0  0  0  0
 31 32  1  0  0  0  0
 31 36  2  0  0  0  0
 32 34  2  0  0  0  0
 32 41  1  0  0  0  0
 33 39  1  0  0  0  0
 33 40  2  0  0  0  0
 34 35  1  0  0  0  0
 34 59  1  0  0  0  0
 35 37  2  0  0  0  0
 35 60  1  0  0  0  0
 36 37  1  0  0  0  0
 36 61  1  0  0  0  0
 37 62  1  0  0  0  0
 38 40  1  0  0  0  0
 38 63  1  0  0  0  0
 39 41  1  0  0  0  0
 40 64  1  0  0  0  0
 41 65  1  0  0  0  0
 41 66  1  0  0  0  0
M  CHG  1  30  -1
M  END
> <rseq>
1

> <mseq>
518

> <S>
-7.012311

> <rmsd_refine>
1.464847

> <E_conf>
-149.2159

> <E_score1>
-12.27074

> <E_refine>
-42.19056

> <E_score2>
-7.012311

>  <$File>
outputs/pdb_4j58_cleaned.pdb_2024_06_17__22_47_40_V2_BS398_MIN1_/SDF/sdf_db.sdf

> <Rec_index>
1

>  <PLIF_raw>
[[10,30,30,30],[1504,823,823,829],[101,54,54,54],[3,2,7,7],[0.5,5.1,4.9823262,1.446162699]]

> <FP:PLIF>
6 19 1 16 8

>  <PLIF_ligidx>
[30,30,[30,30],30,10]

$$$$
518
  MOE2022           3D

 68 73  0  0  1  0  0  0  0  0999 V2000
   -0.4350   16.7580   17.4860 C   0  0  0  0  0  0  0  0  0  0  0  0
    0.5820   16.9240   16.5470 C   0  0  0  0  0  0  0  0  0  0  0  0
   -1.6550   17.4010   17.3140 C   0  0  0  0  0  0  0  0  0  0  0  0
   -1.8380   18.2210   16.2050 C   0  0  0  0  0  0  0  0  0  0  0  0
   -3.0230   18.8740   16.0410 O   0  0  0  0  0  0  0  0  0  0  0  0
    0.3830   17.7280   15.4190 C   0  0  0  0  0  0  0  0  0  0  0  0
   -0.8330   18.3880   15.2560 C   0  0  0  0  0  0  0  0  0  0  0  0
    1.4630   17.8830   14.3610 C   0  0  1  0  0  0  0  0  0  0  0  0
    2.3040   19.0740   14.4760 N   0  0  0  0  0  0  0  0  0  0  0  0
    2.4870   19.7370   15.7840 C   0  0  0  0  0  0  0  0  0  0  0  0
    3.1320   19.4460   13.4300 C   0  0  0  0  0  0  0  0  0  0  0  0
    3.8080   20.4750   13.4790 O   0  0  0  0  0  0  0  0  0  0  0  0
    2.2860   16.7210   14.3040 O   0  0  0  0  0  0  0  0  0  0  0  0
    2.8140   16.3470   13.1030 C   0  0  0  0  0  0  0  0  0  0  0  0
    2.9350   14.9810   12.8760 C   0  0  0  0  0  0  0  0  0  0  0  0
    3.2110   17.2710   12.1210 C   0  0  0  0  0  0  0  0  0  0  0  0
    3.6010   19.1720   16.6460 C   0  0  0  0  0  0  0  0  0  0  0  0
    3.2030   18.6890   12.2720 N   0  0  0  0  0  0  0  0  0  0  0  0
    3.4400   14.5260   11.6630 C   0  0  0  0  0  0  0  0  0  0  0  0
    3.8250   15.4330   10.6770 C   0  0  0  0  0  0  0  0  0  0  0  0
    3.9710   19.8690   17.9370 C   0  0  0  0  0  0  0  0  0  0  0  0
    3.7040   16.8030   10.9040 C   0  0  0  0  0  0  0  0  0  0  0  0
    4.4350   14.9300    9.3870 C   0  0  0  0  0  0  0  0  0  0  0  0
    4.1430   18.1420   16.3530 O   0  0  0  0  0  0  0  0  0  0  0  0
    5.3840   20.4490   17.9560 C   0  0  0  0  0  0  0  0  0  0  0  0
    5.9220   14.6950    9.5130 C   0  0  0  0  0  0  0  0  0  0  0  0
    5.8190   21.5180   17.1380 C   0  0  0  0  0  0  0  0  0  0  0  0
    6.3700   13.6020    9.1050 O   0  0  0  0  0  0  0  0  0  0  0  0
    6.3070   19.8060   18.7800 C   0  0  0  0  0  0  0  0  0  0  0  0
    6.6110   15.6190   10.0010 O   0  5  0  0  0  0  0  0  0  0  0  0
    4.9270   22.4130   16.3740 C   0  0  0  0  0  0  0  0  0  0  0  0
    5.3710   22.9240   15.1430 C   0  0  0  0  0  0  0  0  0  0  0  0
    7.2030   21.7430   17.0210 C   0  0  0  0  0  0  0  0  0  0  0  0
    4.5290   23.7020   14.3540 C   0  0  0  0  0  0  0  0  0  0  0  0
    3.2600   24.0410   14.8080 C   0  0  0  0  0  0  0  0  0  0  0  0
    3.6840   22.8480   16.8570 C   0  0  0  0  0  0  0  0  0  0  0  0
    2.8480   23.6320   16.0710 C   0  0  0  0  0  0  0  0  0  0  0  0
    7.7160   22.6860   15.9540 C   0  0  0  0  0  0  0  0  0  0  0  0
    8.1050   21.0860   17.8480 C   0  0  0  0  0  0  0  0  0  0  0  0
    6.8020   22.6720   14.7240 C   0  0  0  0  0  0  0  0  0  0  0  0
    7.6540   20.1350   18.7470 C   0  0  0  0  0  0  0  0  0  0  0  0
   -0.2760   16.1370   18.3300 H   0  0  0  0  0  0  0  0  0  0  0  0
    1.5060   16.4250   16.6930 H   0  0  0  0  0  0  0  0  0  0  0  0
   -2.4340   17.2710   18.0200 H   0  0  0  0  0  0  0  0  0  0  0  0
   -3.6290   18.6800   16.7830 H   0  0  0  0  0  0  0  0  0  0  0  0
   -0.9990   19.0100   14.4140 H   0  0  0  0  0  0  0  0  0  0  0  0
    0.9460   17.9400   13.4110 H   0  0  0  0  0  0  0  0  0  0  0  0
    2.6630   20.7900   15.6260 H   0  0  0  0  0  0  0  0  0  0  0  0
    1.5670   19.7380   16.3510 H   0  0  0  0  0  0  0  0  0  0  0  0
    2.6430   14.2880   13.6230 H   0  0  0  0  0  0  0  0  0  0  0  0
    3.5560   19.2120   11.4580 H   0  0  0  0  0  0  0  0  0  0  0  0
    3.5410   13.4850   11.4920 H   0  0  0  0  0  0  0  0  0  0  0  0
    3.2230   20.5960   18.1970 H   0  0  0  0  0  0  0  0  0  0  0  0
    3.8780   19.1360   18.7260 H   0  0  0  0  0  0  0  0  0  0  0  0
    4.0130   17.4890   10.1580 H   0  0  0  0  0  0  0  0  0  0  0  0
    3.9420   14.0180    9.0810 H   0  0  0  0  0  0  0  0  0  0  0  0
    4.2560   15.6360    8.5890 H   0  0  0  0  0  0  0  0  0  0  0  0
    5.9860   19.0350   19.4260 H   0  0  0  0  0  0  0  0  0  0  0  0
    4.8580   24.0550   13.4100 H   0  0  0  0  0  0  0  0  0  0  0  0
    2.6180   24.6290   14.2040 H   0  0  0  0  0  0  0  0  0  0  0  0
    3.3730   22.6010   17.8350 H   0  0  0  0  0  0  0  0  0  0  0  0
    1.8990   23.9260   16.4370 H   0  0  0  0  0  0  0  0  0  0  0  0
    7.7500   23.6950   16.3670 H   0  0  0  0  0  0  0  0  0  0  0  0
    8.7210   22.3860   15.6550 H   0  0  0  0  0  0  0  0  0  0  0  0
    9.1410   21.2990   17.7860 H   0  0  0  0  0  0  0  0  0  0  0  0
    6.8610   21.7020   14.2330 H   0  0  0  0  0  0  0  0  0  0  0  0
    7.1300   23.4410   14.0230 H   0  0  0  0  0  0  0  0  0  0  0  0
    8.3400   19.6360   19.3810 H   0  0  0  0  0  0  0  0  0  0  0  0
  1  2  2  0  0  0  0
  1  3  1  0  0  0  0
  1 42  1  0  0  0  0
  2  6  1  0  0  0  0
  2 43  1  0  0  0  0
  3  4  2  0  0  0  0
  3 44  1  0  0  0  0
  4  5  1  0  0  0  0
  4  7  1  0  0  0  0
  5 45  1  0  0  0  0
  6  7  2  0  0  0  0
  6  8  1  0  0  0  0
  7 46  1  0  0  0  0
  8  9  1  0  0  0  0
  8 13  1  0  0  0  0
  8 47  1  0  0  0  0
  9 10  1  0  0  0  0
  9 11  1  0  0  0  0
 10 17  1  0  0  0  0
 10 48  1  0  0  0  0
 10 49  1  0  0  0  0
 11 12  2  0  0  0  0
 11 18  1  0  0  0  0
 13 14  1  0  0  0  0
 14 15  2  0  0  0  0
 14 16  1  0  0  0  0
 15 19  1  0  0  0  0
 15 50  1  0  0  0  0
 16 18  1  0  0  0  0
 16 22  2  0  0  0  0
 17 21  1  0  0  0  0
 17 24  2  0  0  0  0
 18 51  1  0  0  0  0
 19 20  2  0  0  0  0
 19 52  1  0  0  0  0
 20 22  1  0  0  0  0
 20 23  1  0  0  0  0
 21 25  1  0  0  0  0
 21 53  1  0  0  0  0
 21 54  1  0  0  0  0
 22 55  1  0  0  0  0
 23 26  1  0  0  0  0
 23 56  1  0  0  0  0
 23 57  1  0  0  0  0
 25 27  1  0  0  0  0
 25 29  2  0  0  0  0
 26 28  2  0  0  0  0
 26 30  1  0  0  0  0
 27 31  1  0  0  0  0
 27 33  2  0  0  0  0
 29 41  1  0  0  0  0
 29 58  1  0  0  0  0
 31 32  1  0  0  0  0
 31 36  2  0  0  0  0
 32 34  2  0  0  0  0
 32 40  1  0  0  0  0
 33 38  1  0  0  0  0
 33 39  1  0  0  0  0
 34 35  1  0  0  0  0
 34 59  1  0  0  0  0
 35 37  2  0  0  0  0
 35 60  1  0  0  0  0
 36 37  1  0  0  0  0
 36 61  1  0  0  0  0
 37 62  1  0  0  0  0
 38 40  1  0  0  0  0
 38 63  1  0  0  0  0
 38 64  1  0  0  0  0
 39 41  2  0  0  0  0
 39 65  1  0  0  0  0
 40 66  1  0  0  0  0
 40 67  1  0  0  0  0
 41 68  1  0  0  0  0
M  CHG  1  30  -1
M  END
> <rseq>
1

> <mseq>
519

> <S>
-6.632411

> <rmsd_refine>
2.76582

> <E_conf>
-157.7531

> <E_score1>
-12.37811

> <E_refine>
-37.42315

> <E_score2>
-6.632411

>  <$File>
outputs/pdb_4j58_cleaned.pdb_2024_06_17__22_47_40_V2_BS398_MIN1_/SDF/sdf_db.sdf

> <Rec_index>
1

>  <PLIF_raw>
[[24,30,30],[954,823,823],[62,54,54],[2,2,7],[2.1,4,3.461821551]]

> <FP:PLIF>
6 19 1 20 23

>  <PLIF_ligidx>
[30,30,30,24,24]

$$$$
519
  MOE2022           3D

 68 72  0  0  1  0  0  0  0  0999 V2000
    2.5930   16.6120   20.1270 C   0  0  0  0  0  0  0  0  0  0  0  0
    2.6130   17.0680   18.8110 C   0  0  0  0  0  0  0  0  0  0  0  0
    1.4240   16.0960   20.6680 C   0  0  0  0  0  0  0  0  0  0  0  0
    0.2820   16.0420   19.8760 C   0  0  0  0  0  0  0  0  0  0  0  0
   -0.8610   15.5170   20.4050 O   0  0  0  0  0  0  0  0  0  0  0  0
    1.4630   17.0260   18.0160 C   0  0  0  0  0  0  0  0  0  0  0  0
    0.2880   16.5060   18.5590 C   0  0  0  0  0  0  0  0  0  0  0  0
    1.4970   17.5010   16.5630 C   0  0  1  0  0  0  0  0  0  0  0  0
    1.6580   18.9480   16.3410 N   0  0  0  0  0  0  0  0  0  0  0  0
    2.2680   19.8350   17.3580 C   0  0  0  0  0  0  0  0  0  0  0  0
    1.2890   19.5040   15.1290 C   0  0  0  0  0  0  0  0  0  0  0  0
    1.0800   20.7120   15.0140 O   0  0  0  0  0  0  0  0  0  0  0  0
    2.5000   16.7900   15.8490 O   0  0  0  0  0  0  0  0  0  0  0  0
    2.4910   16.6700   14.4810 C   0  0  0  0  0  0  0  0  0  0  0  0
    3.1620   15.5690   13.9720 C   0  0  0  0  0  0  0  0  0  0  0  0
    1.8640   17.5740   13.6050 C   0  0  0  0  0  0  0  0  0  0  0  0
    3.7880   19.9510   17.3230 C   0  0  0  0  0  0  0  0  0  0  0  0
    1.1240   18.7200   14.0040 N   0  0  0  0  0  0  0  0  0  0  0  0
    3.2410   15.3650   12.6000 C   0  0  0  0  0  0  0  0  0  0  0  0
    2.6700   16.2800   11.7190 C   0  0  0  0  0  0  0  0  0  0  0  0
    4.4930   20.8340   18.3380 C   0  0  0  0  0  0  0  0  0  0  0  0
    1.9660   17.3730   12.2240 C   0  0  0  0  0  0  0  0  0  0  0  0
    2.8490   16.0800   10.2250 C   0  0  0  0  0  0  0  0  0  0  0  0
    4.4380   19.3080   16.5440 O   0  0  0  0  0  0  0  0  0  0  0  0
    5.3700   21.9250   17.7230 C   0  0  0  0  0  0  0  0  0  0  0  0
    4.2950   15.8900    9.8080 C   0  0  0  0  0  0  0  0  0  0  0  0
    4.7700   23.1170   17.2690 C   0  0  0  0  0  0  0  0  0  0  0  0
    4.5840   14.8710    9.1440 O   0  0  0  0  0  0  0  0  0  0  0  0
    6.7560   21.7510   17.5820 C   0  0  0  0  0  0  0  0  0  0  0  0
    5.1210   16.7660   10.1500 O   0  5  0  0  0  0  0  0  0  0  0  0
    3.3480   23.3920   17.4460 C   0  0  0  0  0  0  0  0  0  0  0  0
    2.4660   23.3020   16.3610 C   0  0  0  0  0  0  0  0  0  0  0  0
    5.5560   24.0830   16.6370 C   0  0  0  0  0  0  0  0  0  0  0  0
    1.1120   23.5640   16.5270 C   0  0  0  0  0  0  0  0  0  0  0  0
    0.6370   23.9240   17.7860 C   0  0  0  0  0  0  0  0  0  0  0  0
    2.8490   23.7660   18.7020 C   0  0  0  0  0  0  0  0  0  0  0  0
   -0.6880   24.1790   17.9590 O   0  0  0  0  0  0  0  0  0  0  0  0
    7.4760   20.5180   18.0970 C   0  0  0  0  0  0  0  0  0  0  0  0
    1.4970   24.0310   18.8760 C   0  0  0  0  0  0  0  0  0  0  0  0
    7.5190   22.7380   16.9600 C   0  0  0  0  0  0  0  0  0  0  0  0
    6.9180   23.8930   16.4780 C   0  0  0  0  0  0  0  0  0  0  0  0
    3.4740   16.6530   20.7130 H   0  0  0  0  0  0  0  0  0  0  0  0
    3.5110   17.4530   18.4110 H   0  0  0  0  0  0  0  0  0  0  0  0
    1.4050   15.7480   21.6680 H   0  0  0  0  0  0  0  0  0  0  0  0
   -1.5830   15.5440   19.7470 H   0  0  0  0  0  0  0  0  0  0  0  0
   -0.5940   16.4530   17.9750 H   0  0  0  0  0  0  0  0  0  0  0  0
    0.5530   17.2110   16.1200 H   0  0  0  0  0  0  0  0  0  0  0  0
    1.8440   20.8270   17.2970 H   0  0  0  0  0  0  0  0  0  0  0  0
    1.9500   19.5230   18.3360 H   0  0  0  0  0  0  0  0  0  0  0  0
    3.6280   14.8920   14.6300 H   0  0  0  0  0  0  0  0  0  0  0  0
    0.6200   19.1980   13.2410 H   0  0  0  0  0  0  0  0  0  0  0  0
    3.7590   14.5190   12.2250 H   0  0  0  0  0  0  0  0  0  0  0  0
    3.7630   21.2930   18.9830 H   0  0  0  0  0  0  0  0  0  0  0  0
    5.0520   20.2100   19.0190 H   0  0  0  0  0  0  0  0  0  0  0  0
    1.5170   18.0640   11.5570 H   0  0  0  0  0  0  0  0  0  0  0  0
    2.2650   15.2250    9.9120 H   0  0  0  0  0  0  0  0  0  0  0  0
    2.4420   16.9210    9.6830 H   0  0  0  0  0  0  0  0  0  0  0  0
    2.8340   23.0250   15.4060 H   0  0  0  0  0  0  0  0  0  0  0  0
    5.1060   24.9730   16.2780 H   0  0  0  0  0  0  0  0  0  0  0  0
    0.4480   23.4880   15.7050 H   0  0  0  0  0  0  0  0  0  0  0  0
    3.5080   23.8460   19.5270 H   0  0  0  0  0  0  0  0  0  0  0  0
   -1.1800   24.0350   17.1270 H   0  0  0  0  0  0  0  0  0  0  0  0
    7.5460   20.5430   19.1840 H   0  0  0  0  0  0  0  0  0  0  0  0
    6.9490   19.6140   17.8030 H   0  0  0  0  0  0  0  0  0  0  0  0
    8.4880   20.4500   17.6970 H   0  0  0  0  0  0  0  0  0  0  0  0
    1.1220   24.3120   19.8250 H   0  0  0  0  0  0  0  0  0  0  0  0
    8.5660   22.6110   16.8480 H   0  0  0  0  0  0  0  0  0  0  0  0
    7.4980   24.6320   15.9910 H   0  0  0  0  0  0  0  0  0  0  0  0
  1  2  2  0  0  0  0
  1  3  1  0  0  0  0
  1 42  1  0  0  0  0
  2  6  1  0  0  0  0
  2 43  1  0  0  0  0
  3  4  2  0  0  0  0
  3 44  1  0  0  0  0
  4  5  1  0  0  0  0
  4  7  1  0  0  0  0
  5 45  1  0  0  0  0
  6  7  2  0  0  0  0
  6  8  1  0  0  0  0
  7 46  1  0  0  0  0
  8  9  1  0  0  0  0
  8 13  1  0  0  0  0
  8 47  1  0  0  0  0
  9 10  1  0  0  0  0
  9 11  1  0  0  0  0
 10 17  1  0  0  0  0
 10 48  1  0  0  0  0
 10 49  1  0  0  0  0
 11 12  2  0  0  0  0
 11 18  1  0  0  0  0
 13 14  1  0  0  0  0
 14 15  2  0  0  0  0
 14 16  1  0  0  0  0
 15 19  1  0  0  0  0
 15 50  1  0  0  0  0
 16 18  1  0  0  0  0
 16 22  2  0  0  0  0
 17 21  1  0  0  0  0
 17 24  2  0  0  0  0
 18 51  1  0  0  0  0
 19 20  2  0  0  0  0
 19 52  1  0  0  0  0
 20 22  1  0  0  0  0
 20 23  1  0  0  0  0
 21 25  1  0  0  0  0
 21 53  1  0  0  0  0
 21 54  1  0  0  0  0
 22 55  1  0  0  0  0
 23 26  1  0  0  0  0
 23 56  1  0  0  0  0
 23 57  1  0  0  0  0
 25 27  1  0  0  0  0
 25 29  2  0  0  0  0
 26 28  2  0  0  0  0
 26 30  1  0  0  0  0
 27 31  1  0  0  0  0
 27 33  2  0  0  0  0
 29 38  1  0  0  0  0
 29 40  1  0  0  0  0
 31 32  1  0  0  0  0
 31 36  2  0  0  0  0
 32 34  2  0  0  0  0
 32 58  1  0  0  0  0
 33 41  1  0  0  0  0
 33 59  1  0  0  0  0
 34 35  1  0  0  0  0
 34 60  1  0  0  0  0
 35 37  1  0  0  0  0
 35 39  2  0  0  0  0
 36 39  1  0  0  0  0
 36 61  1  0  0  0  0
 37 62  1  0  0  0  0
 38 63  1  0  0  0  0
 38 64  1  0  0  0  0
 38 65  1  0  0  0  0
 39 66  1  0  0  0  0
 40 41  2  0  0  0  0
 40 67  1  0  0  0  0
 41 68  1  0  0  0  0
M  CHG  1  30  -1
M  END
> <rseq>
1

> <mseq>
520

> <S>
-6.617143

> <rmsd_refine>
1.451122

> <E_conf>
-183.9568

> <E_score1>
-12.81618

> <E_refine>
-41.10263

> <E_score2>
-6.617143

>  <$File>
outputs/pdb_4j58_cleaned.pdb_2024_06_17__22_47_40_V2_BS398_MIN1_/SDF/sdf_db.sdf

> <Rec_index>
1

>  <PLIF_raw>
[[30,30,30],[823,823,829],[54,54,54],[2,7,7],[4.4,4.858101018,1.531028327]]

> <FP:PLIF>
6 19 1 16

>  <PLIF_ligidx>
[30,30,[30,30],30]

$$$$
520
  MOE2022           3D

 70 74  0  0  1  0  0  0  0  0999 V2000
    1.5720   16.0160   19.4510 C   0  0  0  0  0  0  0  0  0  0  0  0
    1.9760   16.5180   18.2150 C   0  0  0  0  0  0  0  0  0  0  0  0
    0.2240   15.7990   19.7080 C   0  0  0  0  0  0  0  0  0  0  0  0
   -0.7080   16.0900   18.7160 C   0  0  0  0  0  0  0  0  0  0  0  0
   -2.0340   15.8680   18.9490 O   0  0  0  0  0  0  0  0  0  0  0  0
    1.0340   16.8290   17.2270 C   0  0  0  0  0  0  0  0  0  0  0  0
   -0.3180   16.6120   17.4860 C   0  0  0  0  0  0  0  0  0  0  0  0
    1.4620   17.3660   15.8690 C   0  0  1  0  0  0  0  0  0  0  0  0
    1.8660   18.7770   15.8420 N   0  0  0  0  0  0  0  0  0  0  0  0
    2.5290   19.4360   16.9980 C   0  0  0  0  0  0  0  0  0  0  0  0
    1.8930   19.4590   14.6410 C   0  0  0  0  0  0  0  0  0  0  0  0
    1.8310   20.6870   14.6170 O   0  0  0  0  0  0  0  0  0  0  0  0
    2.4780   16.5370   15.3190 O   0  0  0  0  0  0  0  0  0  0  0  0
    2.6890   16.4530   13.9670 C   0  0  0  0  0  0  0  0  0  0  0  0
    3.1130   15.2190   13.4880 C   0  0  0  0  0  0  0  0  0  0  0  0
    2.5180   17.5280   13.0790 C   0  0  0  0  0  0  0  0  0  0  0  0
    4.0420   19.2900   17.0120 C   0  0  0  0  0  0  0  0  0  0  0  0
    1.9920   18.8080   13.4230 N   0  0  0  0  0  0  0  0  0  0  0  0
    3.4450   15.0640   12.1460 C   0  0  0  0  0  0  0  0  0  0  0  0
    3.3600   16.1460   11.2710 C   0  0  0  0  0  0  0  0  0  0  0  0
    4.8730   19.8640   18.1410 C   0  0  0  0  0  0  0  0  0  0  0  0
    2.8750   17.3690   11.7360 C   0  0  0  0  0  0  0  0  0  0  0  0
    3.7940   15.9760    9.8230 C   0  0  0  0  0  0  0  0  0  0  0  0
    4.5900   18.6900   16.1330 O   0  0  0  0  0  0  0  0  0  0  0  0
    5.7260   21.0750   17.7570 C   0  0  0  0  0  0  0  0  0  0  0  0
    5.1730   15.3660    9.6500 C   0  0  0  0  0  0  0  0  0  0  0  0
    5.0680   22.1620   17.0240 C   0  0  0  0  0  0  0  0  0  0  0  0
    5.2520   14.2490    9.0940 O   0  0  0  0  0  0  0  0  0  0  0  0
    7.0430   21.1670   18.0510 C   0  0  0  0  0  0  0  0  0  0  0  0
    6.1570   16.0210   10.0590 O   0  5  0  0  0  0  0  0  0  0  0  0
    3.8720   22.8220   17.5700 C   0  0  0  0  0  0  0  0  0  0  0  0
    3.0510   23.5910   16.7240 C   0  0  0  0  0  0  0  0  0  0  0  0
    5.5770   22.5720   15.8370 C   0  0  0  0  0  0  0  0  0  0  0  0
    1.8940   24.1870   17.2180 C   0  0  0  0  0  0  0  0  0  0  0  0
    1.5690   24.0430   18.5640 C   0  0  0  0  0  0  0  0  0  0  0  0
    3.5410   22.7330   18.9300 C   0  0  0  0  0  0  0  0  0  0  0  0
    0.4270   24.6130   19.0390 O   0  0  0  0  0  0  0  0  0  0  0  0
    7.8730   20.1400   18.7930 C   0  0  0  0  0  0  0  0  0  0  0  0
    2.3930   23.3320   19.4290 C   0  0  0  0  0  0  0  0  0  0  0  0
    4.9430   23.6910   15.0420 C   0  0  0  0  0  0  0  0  0  0  0  0
    3.4260   23.7620   15.2630 C   0  0  0  0  0  0  0  0  0  0  0  0
    2.2960   15.7960   20.1930 H   0  0  0  0  0  0  0  0  0  0  0  0
    3.0070   16.6630   18.0250 H   0  0  0  0  0  0  0  0  0  0  0  0
   -0.0890   15.4170   20.6440 H   0  0  0  0  0  0  0  0  0  0  0  0
   -2.1790   15.5000   19.8410 H   0  0  0  0  0  0  0  0  0  0  0  0
   -1.0480   16.8330   16.7510 H   0  0  0  0  0  0  0  0  0  0  0  0
    0.6080   17.2660   15.2110 H   0  0  0  0  0  0  0  0  0  0  0  0
    2.2830   20.4890   17.0170 H   0  0  0  0  0  0  0  0  0  0  0  0
    2.1170   19.0860   17.9330 H   0  0  0  0  0  0  0  0  0  0  0  0
    3.1920   14.3960   14.1440 H   0  0  0  0  0  0  0  0  0  0  0  0
    1.8330   19.4330   12.6190 H   0  0  0  0  0  0  0  0  0  0  0  0
    3.7810   14.1230   11.7940 H   0  0  0  0  0  0  0  0  0  0  0  0
    4.2310   20.1080   18.9690 H   0  0  0  0  0  0  0  0  0  0  0  0
    5.4910   19.0700   18.5250 H   0  0  0  0  0  0  0  0  0  0  0  0
    2.7830   18.1860   11.0680 H   0  0  0  0  0  0  0  0  0  0  0  0
    3.0630   15.3680    9.3080 H   0  0  0  0  0  0  0  0  0  0  0  0
    3.7760   16.9300    9.3150 H   0  0  0  0  0  0  0  0  0  0  0  0
    7.5990   22.0180   17.7480 H   0  0  0  0  0  0  0  0  0  0  0  0
    6.4520   22.1360   15.4280 H   0  0  0  0  0  0  0  0  0  0  0  0
    1.2620   24.7480   16.5800 H   0  0  0  0  0  0  0  0  0  0  0  0
    4.1730   22.2070   19.5920 H   0  0  0  0  0  0  0  0  0  0  0  0
    0.2610   24.3430   19.9630 H   0  0  0  0  0  0  0  0  0  0  0  0
    7.3470   19.7060   19.6310 H   0  0  0  0  0  0  0  0  0  0  0  0
    8.1880   19.3460   18.1330 H   0  0  0  0  0  0  0  0  0  0  0  0
    8.7710   20.5940   19.1870 H   0  0  0  0  0  0  0  0  0  0  0  0
    2.1520   23.2500   20.4560 H   0  0  0  0  0  0  0  0  0  0  0  0
    5.3970   24.6280   15.3340 H   0  0  0  0  0  0  0  0  0  0  0  0
    5.1520   23.5680   13.9880 H   0  0  0  0  0  0  0  0  0  0  0  0
    2.9530   22.9670   14.6910 H   0  0  0  0  0  0  0  0  0  0  0  0
    3.0570   24.7180   14.8890 H   0  0  0  0  0  0  0  0  0  0  0  0
  1  2  2  0  0  0  0
  1  3  1  0  0  0  0
  1 42  1  0  0  0  0
  2  6  1  0  0  0  0
  2 43  1  0  0  0  0
  3  4  2  0  0  0  0
  3 44  1  0  0  0  0
  4  5  1  0  0  0  0
  4  7  1  0  0  0  0
  5 45  1  0  0  0  0
  6  7  2  0  0  0  0
  6  8  1  0  0  0  0
  7 46  1  0  0  0  0
  8  9  1  0  0  0  0
  8 13  1  0  0  0  0
  8 47  1  0  0  0  0
  9 10  1  0  0  0  0
  9 11  1  0  0  0  0
 10 17  1  0  0  0  0
 10 48  1  0  0  0  0
 10 49  1  0  0  0  0
 11 12  2  0  0  0  0
 11 18  1  0  0  0  0
 13 14  1  0  0  0  0
 14 15  2  0  0  0  0
 14 16  1  0  0  0  0
 15 19  1  0  0  0  0
 15 50  1  0  0  0  0
 16 18  1  0  0  0  0
 16 22  2  0  0  0  0
 17 21  1  0  0  0  0
 17 24  2  0  0  0  0
 18 51  1  0  0  0  0
 19 20  2  0  0  0  0
 19 52  1  0  0  0  0
 20 22  1  0  0  0  0
 20 23  1  0  0  0  0
 21 25  1  0  0  0  0
 21 53  1  0  0  0  0
 21 54  1  0  0  0  0
 22 55  1  0  0  0  0
 23 26  1  0  0  0  0
 23 56  1  0  0  0  0
 23 57  1  0  0  0  0
 25 27  1  0  0  0  0
 25 29  2  0  0  0  0
 26 28  2  0  0  0  0
 26 30  1  0  0  0  0
 27 31  1  0  0  0  0
 27 33  2  0  0  0  0
 29 38  1  0  0  0  0
 29 58  1  0  0  0  0
 31 32  1  0  0  0  0
 31 36  2  0  0  0  0
 32 34  2  0  0  0  0
 32 41  1  0  0  0  0
 33 40  1  0  0  0  0
 33 59  1  0  0  0  0
 34 35  1  0  0  0  0
 34 60  1  0  0  0  0
 35 37  1  0  0  0  0
 35 39  2  0  0  0  0
 36 39  1  0  0  0  0
 36 61  1  0  0  0  0
 37 62  1  0  0  0  0
 38 63  1  0  0  0  0
 38 64  1  0  0  0  0
 38 65  1  0  0  0  0
 39 66  1  0  0  0  0
 40 41  1  0  0  0  0
 40 67  1  0  0  0  0
 40 68  1  0  0  0  0
 41 69  1  0  0  0  0
 41 70  1  0  0  0  0
M  CHG  1  30  -1
M  END
> <rseq>
1

> <mseq>
521

> <S>
-6.827355

> <rmsd_refine>
1.711268

> <E_conf>
-175.5418

> <E_score1>
-13.28753

> <E_refine>
-39.75165

> <E_score2>
-6.827355

>  <$File>
outputs/pdb_4j58_cleaned.pdb_2024_06_17__22_47_40_V2_BS398_MIN1_/SDF/sdf_db.sdf

> <Rec_index>
1

>  <PLIF_raw>
[[30,30,30],[823,823,829],[54,54,54],[2,7,7],[6.3,4.871231814,0.656676933]]

> <FP:PLIF>
6 19 1 16

>  <PLIF_ligidx>
[30,30,[30,30],30]

$$$$
521
  MOE2022           3D

 68 72  0  0  1  0  0  0  0  0999 V2000
    1.3080   15.9650   19.2010 C   0  0  0  0  0  0  0  0  0  0  0  0
    1.7820   16.4590   17.9870 C   0  0  0  0  0  0  0  0  0  0  0  0
   -0.0600   15.8300   19.4120 C   0  0  0  0  0  0  0  0  0  0  0  0
   -0.9390   16.1980   18.3970 C   0  0  0  0  0  0  0  0  0  0  0  0
   -2.2830   16.0620   18.5880 O   0  0  0  0  0  0  0  0  0  0  0  0
    0.8940   16.8390   16.9740 C   0  0  0  0  0  0  0  0  0  0  0  0
   -0.4770   16.7090   17.1870 C   0  0  0  0  0  0  0  0  0  0  0  0
    1.4020   17.3590   15.6370 C   0  0  1  0  0  0  0  0  0  0  0  0
    1.8590   18.7550   15.6330 N   0  0  0  0  0  0  0  0  0  0  0  0
    2.4670   19.3750   16.8370 C   0  0  0  0  0  0  0  0  0  0  0  0
    2.0230   19.4300   14.4360 C   0  0  0  0  0  0  0  0  0  0  0  0
    2.0890   20.6590   14.4110 O   0  0  0  0  0  0  0  0  0  0  0  0
    2.4170   16.4920   15.1420 O   0  0  0  0  0  0  0  0  0  0  0  0
    2.6980   16.3910   13.8060 C   0  0  0  0  0  0  0  0  0  0  0  0
    3.1120   15.1420   13.3590 C   0  0  0  0  0  0  0  0  0  0  0  0
    2.6020   17.4650   12.9060 C   0  0  0  0  0  0  0  0  0  0  0  0
    3.9620   19.1360   16.9630 C   0  0  0  0  0  0  0  0  0  0  0  0
    2.1190   18.7680   13.2240 N   0  0  0  0  0  0  0  0  0  0  0  0
    3.4960   14.9660   12.0330 C   0  0  0  0  0  0  0  0  0  0  0  0
    3.4710   16.0390   11.1440 C   0  0  0  0  0  0  0  0  0  0  0  0
    4.7660   19.7730   18.0790 C   0  0  0  0  0  0  0  0  0  0  0  0
    3.0060   17.2820   11.5790 C   0  0  0  0  0  0  0  0  0  0  0  0
    3.9520   15.8410    9.7160 C   0  0  0  0  0  0  0  0  0  0  0  0
    4.5220   18.4420   16.1640 O   0  0  0  0  0  0  0  0  0  0  0  0
    5.5070   21.0420   17.6720 C   0  0  0  0  0  0  0  0  0  0  0  0
    5.3590   15.2840    9.6030 C   0  0  0  0  0  0  0  0  0  0  0  0
    4.7290   22.0270   16.9310 C   0  0  0  0  0  0  0  0  0  0  0  0
    5.5080   14.1820    9.0320 O   0  0  0  0  0  0  0  0  0  0  0  0
    6.8110   21.2650   17.9550 C   0  0  0  0  0  0  0  0  0  0  0  0
    6.2960   15.9680   10.0700 O   0  5  0  0  0  0  0  0  0  0  0  0
    3.7130   22.8080   17.5680 C   0  0  0  0  0  0  0  0  0  0  0  0
    2.9090   23.6750   16.7790 C   0  0  0  0  0  0  0  0  0  0  0  0
    4.9670   22.1930   15.5790 C   0  0  0  0  0  0  0  0  0  0  0  0
    1.8620   24.4070   17.3920 C   0  0  0  0  0  0  0  0  0  0  0  0
    1.6600   24.3060   18.7480 C   0  0  0  0  0  0  0  0  0  0  0  0
    3.4830   22.7590   18.9710 C   0  0  0  0  0  0  0  0  0  0  0  0
    0.6540   25.0090   19.3410 O   0  0  0  0  0  0  0  0  0  0  0  0
    7.7280   20.3270   18.7130 C   0  0  0  0  0  0  0  0  0  0  0  0
    2.4770   23.4900   19.5530 C   0  0  0  0  0  0  0  0  0  0  0  0
    4.1940   23.0800   14.8110 C   0  0  0  0  0  0  0  0  0  0  0  0
    3.1790   23.7990   15.3930 C   0  0  0  0  0  0  0  0  0  0  0  0
    1.9920   15.6860   19.9600 H   0  0  0  0  0  0  0  0  0  0  0  0
    2.8270   16.5400   17.8330 H   0  0  0  0  0  0  0  0  0  0  0  0
   -0.4270   15.4520   20.3300 H   0  0  0  0  0  0  0  0  0  0  0  0
   -2.4760   15.6930   19.4710 H   0  0  0  0  0  0  0  0  0  0  0  0
   -1.1680   16.9860   16.4330 H   0  0  0  0  0  0  0  0  0  0  0  0
    0.5790   17.2880   14.9370 H   0  0  0  0  0  0  0  0  0  0  0  0
    2.2830   20.4410   16.8390 H   0  0  0  0  0  0  0  0  0  0  0  0
    1.9670   19.0550   17.7390 H   0  0  0  0  0  0  0  0  0  0  0  0
    3.1430   14.3240   14.0280 H   0  0  0  0  0  0  0  0  0  0  0  0
    2.0250   19.3980   12.4140 H   0  0  0  0  0  0  0  0  0  0  0  0
    3.8240   14.0130   11.7040 H   0  0  0  0  0  0  0  0  0  0  0  0
    4.1130   19.9870   18.9070 H   0  0  0  0  0  0  0  0  0  0  0  0
    5.4510   19.0360   18.4640 H   0  0  0  0  0  0  0  0  0  0  0  0
    2.9650   18.0950   10.9010 H   0  0  0  0  0  0  0  0  0  0  0  0
    3.2620   15.1870    9.2020 H   0  0  0  0  0  0  0  0  0  0  0  0
    3.9110   16.7760    9.1750 H   0  0  0  0  0  0  0  0  0  0  0  0
    7.2810   22.1590   17.6300 H   0  0  0  0  0  0  0  0  0  0  0  0
    5.7300   21.6340   15.1030 H   0  0  0  0  0  0  0  0  0  0  0  0
    1.2430   25.0310   16.8010 H   0  0  0  0  0  0  0  0  0  0  0  0
    4.0970   22.1490   19.5770 H   0  0  0  0  0  0  0  0  0  0  0  0
    0.1250   25.4830   18.6710 H   0  0  0  0  0  0  0  0  0  0  0  0
    7.2480   19.8920   19.5780 H   0  0  0  0  0  0  0  0  0  0  0  0
    8.0780   19.5250   18.0790 H   0  0  0  0  0  0  0  0  0  0  0  0
    8.6020   20.8520   19.0720 H   0  0  0  0  0  0  0  0  0  0  0  0
    2.3080   23.4440   20.5970 H   0  0  0  0  0  0  0  0  0  0  0  0
    4.3920   23.1810   13.7750 H   0  0  0  0  0  0  0  0  0  0  0  0
    2.5890   24.4540   14.8060 H   0  0  0  0  0  0  0  0  0  0  0  0
  1  2  2  0  0  0  0
  1  3  1  0  0  0  0
  1 42  1  0  0  0  0
  2  6  1  0  0  0  0
  2 43  1  0  0  0  0
  3  4  2  0  0  0  0
  3 44  1  0  0  0  0
  4  5  1  0  0  0  0
  4  7  1  0  0  0  0
  5 45  1  0  0  0  0
  6  7  2  0  0  0  0
  6  8  1  0  0  0  0
  7 46  1  0  0  0  0
  8  9  1  0  0  0  0
  8 13  1  0  0  0  0
  8 47  1  0  0  0  0
  9 10  1  0  0  0  0
  9 11  1  0  0  0  0
 10 17  1  0  0  0  0
 10 48  1  0  0  0  0
 10 49  1  0  0  0  0
 11 12  2  0  0  0  0
 11 18  1  0  0  0  0
 13 14  1  0  0  0  0
 14 15  2  0  0  0  0
 14 16  1  0  0  0  0
 15 19  1  0  0  0  0
 15 50  1  0  0  0  0
 16 18  1  0  0  0  0
 16 22  2  0  0  0  0
 17 21  1  0  0  0  0
 17 24  2  0  0  0  0
 18 51  1  0  0  0  0
 19 20  2  0  0  0  0
 19 52  1  0  0  0  0
 20 22  1  0  0  0  0
 20 23  1  0  0  0  0
 21 25  1  0  0  0  0
 21 53  1  0  0  0  0
 21 54  1  0  0  0  0
 22 55  1  0  0  0  0
 23 26  1  0  0  0  0
 23 56  1  0  0  0  0
 23 57  1  0  0  0  0
 25 27  1  0  0  0  0
 25 29  2  0  0  0  0
 26 28  2  0  0  0  0
 26 30  1  0  0  0  0
 27 31  2  0  0  0  0
 27 33  1  0  0  0  0
 29 38  1  0  0  0  0
 29 58  1  0  0  0  0
 31 32  1  0  0  0  0
 31 36  1  0  0  0  0
 32 34  1  0  0  0  0
 32 41  2  0  0  0  0
 33 40  2  0  0  0  0
 33 59  1  0  0  0  0
 34 35  2  0  0  0  0
 34 60  1  0  0  0  0
 35 37  1  0  0  0  0
 35 39  1  0  0  0  0
 36 39  2  0  0  0  0
 36 61  1  0  0  0  0
 37 62  1  0  0  0  0
 38 63  1  0  0  0  0
 38 64  1  0  0  0  0
 38 65  1  0  0  0  0
 39 66  1  0  0  0  0
 40 41  1  0  0  0  0
 40 67  1  0  0  0  0
 41 68  1  0  0  0  0
M  CHG  1  30  -1
M  END
> <rseq>
1

> <mseq>
522

> <S>
-6.678712

> <rmsd_refine>
1.940702

> <E_conf>
-171.8872

> <E_score1>
-13.3114

> <E_refine>
-39.93633

> <E_score2>
-6.678712

>  <$File>
outputs/pdb_4j58_cleaned.pdb_2024_06_17__22_47_40_V2_BS398_MIN1_/SDF/sdf_db.sdf

> <Rec_index>
1

>  <PLIF_raw>
[[30,30,30],[823,823,829],[54,54,54],[2,7,7],[6.5,4.864785937,0.6141666576]]

> <FP:PLIF>
6 19 1 16

>  <PLIF_ligidx>
[30,30,[30,30],30]

$$$$
522
  MOE2022           3D

 69 74  0  0  1  0  0  0  0  0999 V2000
   -0.6110   17.3680   17.2390 C   0  0  0  0  0  0  0  0  0  0  0  0
    0.4820   17.4550   16.3790 C   0  0  0  0  0  0  0  0  0  0  0  0
   -1.7370   18.1540   17.0190 C   0  0  0  0  0  0  0  0  0  0  0  0
   -1.7440   19.0420   15.9480 C   0  0  0  0  0  0  0  0  0  0  0  0
   -2.8340   19.8350   15.7400 O   0  0  0  0  0  0  0  0  0  0  0  0
    0.4540   18.3230   15.2820 C   0  0  0  0  0  0  0  0  0  0  0  0
   -0.6620   19.1320   15.0780 C   0  0  0  0  0  0  0  0  0  0  0  0
    1.5960   18.3720   14.2840 C   0  0  1  0  0  0  0  0  0  0  0  0
    2.5550   19.4590   14.4500 N   0  0  0  0  0  0  0  0  0  0  0  0
    2.8330   20.0190   15.7920 C   0  0  0  0  0  0  0  0  0  0  0  0
    3.3900   19.7930   13.3990 C   0  0  0  0  0  0  0  0  0  0  0  0
    4.1350   20.7740   13.4560 O   0  0  0  0  0  0  0  0  0  0  0  0
    2.2900   17.1300   14.2350 O   0  0  0  0  0  0  0  0  0  0  0  0
    2.8460   16.7270   13.0560 C   0  0  0  0  0  0  0  0  0  0  0  0
    2.9140   15.3540   12.8460 C   0  0  0  0  0  0  0  0  0  0  0  0
    3.3120   17.6240   12.0770 C   0  0  0  0  0  0  0  0  0  0  0  0
    3.8340   19.2430   16.6340 C   0  0  0  0  0  0  0  0  0  0  0  0
    3.3880   19.0440   12.2290 N   0  0  0  0  0  0  0  0  0  0  0  0
    3.4190   14.8640   11.6460 C   0  0  0  0  0  0  0  0  0  0  0  0
    3.8520   15.7430   10.6540 C   0  0  0  0  0  0  0  0  0  0  0  0
    4.2890   19.8120   17.9620 C   0  0  0  0  0  0  0  0  0  0  0  0
    3.7950   17.1200   10.8690 C   0  0  0  0  0  0  0  0  0  0  0  0
    4.4380   15.1960    9.3700 C   0  0  0  0  0  0  0  0  0  0  0  0
    4.2310   18.1670   16.2840 O   0  0  0  0  0  0  0  0  0  0  0  0
    5.4520   20.7980   17.8610 C   0  0  0  0  0  0  0  0  0  0  0  0
    5.8990   14.8360    9.5080 C   0  0  0  0  0  0  0  0  0  0  0  0
    5.3170   22.1420   17.4420 C   0  0  0  0  0  0  0  0  0  0  0  0
    6.2740   13.7360    9.0450 O   0  0  0  0  0  0  0  0  0  0  0  0
    6.7270   20.2920   18.1170 C   0  0  0  0  0  0  0  0  0  0  0  0
    6.6460   15.6760   10.0570 O   0  5  0  0  0  0  0  0  0  0  0  0
    4.0370   22.8690   17.3510 C   0  0  0  0  0  0  0  0  0  0  0  0
    3.8630   23.8040   16.3160 C   0  0  0  0  0  0  0  0  0  0  0  0
    6.4770   22.8390   17.0540 C   0  0  0  0  0  0  0  0  0  0  0  0
    2.6390   24.4380   16.1320 C   0  0  0  0  0  0  0  0  0  0  0  0
    1.6010   24.1910   17.0260 C   0  0  0  0  0  0  0  0  0  0  0  0
    3.0070   22.7240   18.2960 C   0  0  0  0  0  0  0  0  0  0  0  0
    0.3960   24.7960   16.8370 O   0  0  0  0  0  0  0  0  0  0  0  0
    6.3310   24.1560   16.3130 C   0  0  0  0  0  0  0  0  0  0  0  0
    1.7840   23.3570   18.1240 C   0  0  0  0  0  0  0  0  0  0  0  0
    7.8630   21.0510   17.8680 C   0  0  0  0  0  0  0  0  0  0  0  0
    5.0590   24.1500   15.4540 C   0  0  0  0  0  0  0  0  0  0  0  0
    7.7380   22.3120   17.3040 C   0  0  0  0  0  0  0  0  0  0  0  0
   -0.5860   16.6950   18.0560 H   0  0  0  0  0  0  0  0  0  0  0  0
    1.3300   16.8450   16.5580 H   0  0  0  0  0  0  0  0  0  0  0  0
   -2.5770   18.0770   17.6590 H   0  0  0  0  0  0  0  0  0  0  0  0
   -3.5150   19.6730   16.4210 H   0  0  0  0  0  0  0  0  0  0  0  0
   -0.6960   19.8050   14.2590 H   0  0  0  0  0  0  0  0  0  0  0  0
    1.1280   18.4970   13.3150 H   0  0  0  0  0  0  0  0  0  0  0  0
    3.1770   21.0370   15.6890 H   0  0  0  0  0  0  0  0  0  0  0  0
    1.9160   20.1350   16.3510 H   0  0  0  0  0  0  0  0  0  0  0  0
    2.5800   14.6820   13.5940 H   0  0  0  0  0  0  0  0  0  0  0  0
    3.7620   19.5490   11.4120 H   0  0  0  0  0  0  0  0  0  0  0  0
    3.4790   13.8180   11.4900 H   0  0  0  0  0  0  0  0  0  0  0  0
    3.4310   20.2360   18.4390 H   0  0  0  0  0  0  0  0  0  0  0  0
    4.5640   18.9970   18.6170 H   0  0  0  0  0  0  0  0  0  0  0  0
    4.1450   17.7840   10.1210 H   0  0  0  0  0  0  0  0  0  0  0  0
    3.8750   14.3280    9.0540 H   0  0  0  0  0  0  0  0  0  0  0  0
    4.3280   15.9160    8.5720 H   0  0  0  0  0  0  0  0  0  0  0  0
    6.8420   19.3080   18.4880 H   0  0  0  0  0  0  0  0  0  0  0  0
    2.4970   25.1190   15.3320 H   0  0  0  0  0  0  0  0  0  0  0  0
    3.1620   22.1410   19.1640 H   0  0  0  0  0  0  0  0  0  0  0  0
   -0.2400   24.5170   17.5240 H   0  0  0  0  0  0  0  0  0  0  0  0
    6.2680   24.9650   17.0400 H   0  0  0  0  0  0  0  0  0  0  0  0
    7.1960   24.3230   15.6700 H   0  0  0  0  0  0  0  0  0  0  0  0
    1.0040   23.2140   18.8260 H   0  0  0  0  0  0  0  0  0  0  0  0
    8.8230   20.6540   18.0770 H   0  0  0  0  0  0  0  0  0  0  0  0
    5.1550   23.4030   14.6640 H   0  0  0  0  0  0  0  0  0  0  0  0
    4.9260   25.1320   14.9990 H   0  0  0  0  0  0  0  0  0  0  0  0
    8.6080   22.8620   17.0540 H   0  0  0  0  0  0  0  0  0  0  0  0
  1  2  2  0  0  0  0
  1  3  1  0  0  0  0
  1 43  1  0  0  0  0
  2  6  1  0  0  0  0
  2 44  1  0  0  0  0
  3  4  2  0  0  0  0
  3 45  1  0  0  0  0
  4  5  1  0  0  0  0
  4  7  1  0  0  0  0
  5 46  1  0  0  0  0
  6  7  2  0  0  0  0
  6  8  1  0  0  0  0
  7 47  1  0  0  0  0
  8  9  1  0  0  0  0
  8 13  1  0  0  0  0
  8 48  1  0  0  0  0
  9 10  1  0  0  0  0
  9 11  1  0  0  0  0
 10 17  1  0  0  0  0
 10 49  1  0  0  0  0
 10 50  1  0  0  0  0
 11 12  2  0  0  0  0
 11 18  1  0  0  0  0
 13 14  1  0  0  0  0
 14 15  2  0  0  0  0
 14 16  1  0  0  0  0
 15 19  1  0  0  0  0
 15 51  1  0  0  0  0
 16 18  1  0  0  0  0
 16 22  2  0  0  0  0
 17 21  1  0  0  0  0
 17 24  2  0  0  0  0
 18 52  1  0  0  0  0
 19 20  2  0  0  0  0
 19 53  1  0  0  0  0
 20 22  1  0  0  0  0
 20 23  1  0  0  0  0
 21 25  1  0  0  0  0
 21 54  1  0  0  0  0
 21 55  1  0  0  0  0
 22 56  1  0  0  0  0
 23 26  1  0  0  0  0
 23 57  1  0  0  0  0
 23 58  1  0  0  0  0
 25 27  1  0  0  0  0
 25 29  2  0  0  0  0
 26 28  2  0  0  0  0
 26 30  1  0  0  0  0
 27 31  1  0  0  0  0
 27 33  2  0  0  0  0
 29 40  1  0  0  0  0
 29 59  1  0  0  0  0
 31 32  1  0  0  0  0
 31 36  2  0  0  0  0
 32 34  2  0  0  0  0
 32 41  1  0  0  0  0
 33 38  1  0  0  0  0
 33 42  1  0  0  0  0
 34 35  1  0  0  0  0
 34 60  1  0  0  0  0
 35 37  1  0  0  0  0
 35 39  2  0  0  0  0
 36 39  1  0  0  0  0
 36 61  1  0  0  0  0
 37 62  1  0  0  0  0
 38 41  1  0  0  0  0
 38 63  1  0  0  0  0
 38 64  1  0  0  0  0
 39 65  1  0  0  0  0
 40 42  2  0  0  0  0
 40 66  1  0  0  0  0
 41 67  1  0  0  0  0
 41 68  1  0  0  0  0
 42 69  1  0  0  0  0
M  CHG  1  30  -1
M  END
> <rseq>
1

> <mseq>
523

> <S>
-6.293677

> <rmsd_refine>
2.586917

> <E_conf>
-176.0286

> <E_score1>
-12.33941

> <E_refine>
-37.30986

> <E_score2>
-6.293677

>  <$File>
outputs/pdb_4j58_cleaned.pdb_2024_06_17__22_47_40_V2_BS398_MIN1_/SDF/sdf_db.sdf

> <Rec_index>
1

>  <PLIF_raw>
[[24,30,30],[954,823,823],[62,54,54],[2,2,7],[2,4.8,3.899571269]]

> <FP:PLIF>
6 19 1 16 20 23

>  <PLIF_ligidx>
[30,30,30,30,24,24]

$$$$
523
  MOE2022           3D

 71 76  0  0  1  0  0  0  0  0999 V2000
    2.5180   16.4800   20.2000 C   0  0  0  0  0  0  0  0  0  0  0  0
    2.5620   16.9110   18.8760 C   0  0  0  0  0  0  0  0  0  0  0  0
    1.3260   16.0230   20.7440 C   0  0  0  0  0  0  0  0  0  0  0  0
    0.1870   16.0040   19.9460 C   0  0  0  0  0  0  0  0  0  0  0  0
   -0.9790   15.5340   20.4770 O   0  0  0  0  0  0  0  0  0  0  0  0
    1.4140   16.9150   18.0790 C   0  0  0  0  0  0  0  0  0  0  0  0
    0.2160   16.4500   18.6240 C   0  0  0  0  0  0  0  0  0  0  0  0
    1.4640   17.3920   16.6250 C   0  0  1  0  0  0  0  0  0  0  0  0
    1.6980   18.8310   16.4170 N   0  0  0  0  0  0  0  0  0  0  0  0
    2.4690   19.6490   17.3770 C   0  0  0  0  0  0  0  0  0  0  0  0
    1.3070   19.4240   15.2310 C   0  0  0  0  0  0  0  0  0  0  0  0
    1.1570   20.6430   15.1360 O   0  0  0  0  0  0  0  0  0  0  0  0
    2.4180   16.6360   15.8850 O   0  0  0  0  0  0  0  0  0  0  0  0
    2.4350   16.5940   14.5070 C   0  0  0  0  0  0  0  0  0  0  0  0
    3.1310   15.5300   13.9500 C   0  0  0  0  0  0  0  0  0  0  0  0
    1.8080   17.5310   13.6660 C   0  0  0  0  0  0  0  0  0  0  0  0
    3.9870   19.5900   17.2430 C   0  0  0  0  0  0  0  0  0  0  0  0
    1.0580   18.6540   14.1130 N   0  0  0  0  0  0  0  0  0  0  0  0
    3.2220   15.3910   12.5710 C   0  0  0  0  0  0  0  0  0  0  0  0
    2.6390   16.3340   11.7280 C   0  0  0  0  0  0  0  0  0  0  0  0
    4.8900   20.1900   18.3130 C   0  0  0  0  0  0  0  0  0  0  0  0
    1.9180   17.3940   12.2790 C   0  0  0  0  0  0  0  0  0  0  0  0
    2.8150   16.1980   10.2260 C   0  0  0  0  0  0  0  0  0  0  0  0
    4.4880   19.0360   16.3040 O   0  0  0  0  0  0  0  0  0  0  0  0
    5.7800   21.3310   17.8020 C   0  0  0  0  0  0  0  0  0  0  0  0
    4.2540   15.9740    9.7990 C   0  0  0  0  0  0  0  0  0  0  0  0
    5.2020   22.4440   17.1490 C   0  0  0  0  0  0  0  0  0  0  0  0
    4.5090   14.9600    9.1140 O   0  0  0  0  0  0  0  0  0  0  0  0
    7.1810   21.2430   17.8850 C   0  0  0  0  0  0  0  0  0  0  0  0
    5.1060   16.8170   10.1560 O   0  5  0  0  0  0  0  0  0  0  0  0
    3.7930   22.8500   17.2790 C   0  0  0  0  0  0  0  0  0  0  0  0
    3.1450   23.4220   16.1730 C   0  0  0  0  0  0  0  0  0  0  0  0
    6.0100   23.2290   16.3140 C   0  0  0  0  0  0  0  0  0  0  0  0
    1.7990   23.7690   16.2430 C   0  0  0  0  0  0  0  0  0  0  0  0
    1.1000   23.6150   17.4340 C   0  0  0  0  0  0  0  0  0  0  0  0
    3.0960   22.7790   18.4930 C   0  0  0  0  0  0  0  0  0  0  0  0
    1.7580   23.1430   18.5630 C   0  0  0  0  0  0  0  0  0  0  0  0
    5.3610   24.2110   15.3550 C   0  0  0  0  0  0  0  0  0  0  0  0
    7.3870   23.0910   16.3480 C   0  0  0  0  0  0  0  0  0  0  0  0
    3.9670   23.7200   14.9380 C   0  0  0  0  0  0  0  0  0  0  0  0
    7.9060   20.1940   18.7100 C   0  0  0  0  0  0  0  0  0  0  0  0
    7.9720   22.1340   17.1630 C   0  0  0  0  0  0  0  0  0  0  0  0
    3.3970   16.4940   20.7900 H   0  0  0  0  0  0  0  0  0  0  0  0
    3.4770   17.2470   18.4740 H   0  0  0  0  0  0  0  0  0  0  0  0
    1.2880   15.6930   21.7490 H   0  0  0  0  0  0  0  0  0  0  0  0
   -1.6990   15.5850   19.8170 H   0  0  0  0  0  0  0  0  0  0  0  0
   -0.6660   16.4310   18.0370 H   0  0  0  0  0  0  0  0  0  0  0  0
    0.5000   17.1570   16.1910 H   0  0  0  0  0  0  0  0  0  0  0  0
    2.1510   20.6770   17.3160 H   0  0  0  0  0  0  0  0  0  0  0  0
    2.1810   19.3820   18.3770 H   0  0  0  0  0  0  0  0  0  0  0  0
    3.6040   14.8310   14.5770 H   0  0  0  0  0  0  0  0  0  0  0  0
    0.5290   19.1480   13.3790 H   0  0  0  0  0  0  0  0  0  0  0  0
    3.7550   14.5710   12.1620 H   0  0  0  0  0  0  0  0  0  0  0  0
    4.3250   20.4980   19.1720 H   0  0  0  0  0  0  0  0  0  0  0  0
    5.4830   19.3740   18.6970 H   0  0  0  0  0  0  0  0  0  0  0  0
    1.4630   18.1080   11.6410 H   0  0  0  0  0  0  0  0  0  0  0  0
    2.2000   15.3830    9.8720 H   0  0  0  0  0  0  0  0  0  0  0  0
    2.4420   17.0800    9.7250 H   0  0  0  0  0  0  0  0  0  0  0  0
    1.3070   24.1680   15.3940 H   0  0  0  0  0  0  0  0  0  0  0  0
    0.0750   23.8770   17.4870 H   0  0  0  0  0  0  0  0  0  0  0  0
    3.5870   22.4590   19.3730 H   0  0  0  0  0  0  0  0  0  0  0  0
    1.2400   23.0670   19.4810 H   0  0  0  0  0  0  0  0  0  0  0  0
    5.2700   25.1790   15.8490 H   0  0  0  0  0  0  0  0  0  0  0  0
    5.9790   24.3270   14.4630 H   0  0  0  0  0  0  0  0  0  0  0  0
    7.9930   23.7150   15.7490 H   0  0  0  0  0  0  0  0  0  0  0  0
    4.0610   22.8070   14.3490 H   0  0  0  0  0  0  0  0  0  0  0  0
    3.4800   24.4850   14.3320 H   0  0  0  0  0  0  0  0  0  0  0  0
    7.9640   19.2580   18.1630 H   0  0  0  0  0  0  0  0  0  0  0  0
    8.9260   20.5090   18.9320 H   0  0  0  0  0  0  0  0  0  0  0  0
    7.4110   20.0260   19.6660 H   0  0  0  0  0  0  0  0  0  0  0  0
    9.0290   22.0660   17.2080 H   0  0  0  0  0  0  0  0  0  0  0  0
  1  2  2  0  0  0  0
  1  3  1  0  0  0  0
  1 43  1  0  0  0  0
  2  6  1  0  0  0  0
  2 44  1  0  0  0  0
  3  4  2  0  0  0  0
  3 45  1  0  0  0  0
  4  5  1  0  0  0  0
  4  7  1  0  0  0  0
  5 46  1  0  0  0  0
  6  7  2  0  0  0  0
  6  8  1  0  0  0  0
  7 47  1  0  0  0  0
  8  9  1  0  0  0  0
  8 13  1  0  0  0  0
  8 48  1  0  0  0  0
  9 10  1  0  0  0  0
  9 11  1  0  0  0  0
 10 17  1  0  0  0  0
 10 49  1  0  0  0  0
 10 50  1  0  0  0  0
 11 12  2  0  0  0  0
 11 18  1  0  0  0  0
 13 14  1  0  0  0  0
 14 15  2  0  0  0  0
 14 16  1  0  0  0  0
 15 19  1  0  0  0  0
 15 51  1  0  0  0  0
 16 18  1  0  0  0  0
 16 22  2  0  0  0  0
 17 21  1  0  0  0  0
 17 24  2  0  0  0  0
 18 52  1  0  0  0  0
 19 20  2  0  0  0  0
 19 53  1  0  0  0  0
 20 22  1  0  0  0  0
 20 23  1  0  0  0  0
 21 25  1  0  0  0  0
 21 54  1  0  0  0  0
 21 55  1  0  0  0  0
 22 56  1  0  0  0  0
 23 26  1  0  0  0  0
 23 57  1  0  0  0  0
 23 58  1  0  0  0  0
 25 27  1  0  0  0  0
 25 29  2  0  0  0  0
 26 28  2  0  0  0  0
 26 30  1  0  0  0  0
 27 31  1  0  0  0  0
 27 33  2  0  0  0  0
 29 41  1  0  0  0  0
 29 42  1  0  0  0  0
 31 32  1  0  0  0  0
 31 36  2  0  0  0  0
 32 34  2  0  0  0  0
 32 40  1  0  0  0  0
 33 38  1  0  0  0  0
 33 39  1  0  0  0  0
 34 35  1  0  0  0  0
 34 59  1  0  0  0  0
 35 37  2  0  0  0  0
 35 60  1  0  0  0  0
 36 37  1  0  0  0  0
 36 61  1  0  0  0  0
 37 62  1  0  0  0  0
 38 40  1  0  0  0  0
 38 63  1  0  0  0  0
 38 64  1  0  0  0  0
 39 42  2  0  0  0  0
 39 65  1  0  0  0  0
 40 66  1  0  0  0  0
 40 67  1  0  0  0  0
 41 68  1  0  0  0  0
 41 69  1  0  0  0  0
 41 70  1  0  0  0  0
 42 71  1  0  0  0  0
M  CHG  1  30  -1
M  END
> <rseq>
1

> <mseq>
524

> <S>
-6.937545

> <rmsd_refine>
1.361365

> <E_conf>
-159.696

> <E_score1>
-13.08359

> <E_refine>
-42.60295

> <E_score2>
-6.937545

>  <$File>
outputs/pdb_4j58_cleaned.pdb_2024_06_17__22_47_40_V2_BS398_MIN1_/SDF/sdf_db.sdf

> <Rec_index>
1

>  <PLIF_raw>
[[10,30,30,30],[1504,823,823,829],[101,54,54,54],[3,2,7,7],[0.5,4.4,4.897207799,1.643158669]]

> <FP:PLIF>
6 19 1 16 8

>  <PLIF_ligidx>
[30,30,[30,30],30,10]

$$$$
524
  MOE2022           3D

 69 74  0  0  1  0  0  0  0  0999 V2000
    2.5160   16.4770   20.2360 C   0  0  0  0  0  0  0  0  0  0  0  0
    2.5250   16.8870   18.9050 C   0  0  0  0  0  0  0  0  0  0  0  0
    1.3380   16.0360   20.8210 C   0  0  0  0  0  0  0  0  0  0  0  0
    0.1750   16.0110   20.0560 C   0  0  0  0  0  0  0  0  0  0  0  0
   -0.9780   15.5600   20.6270 O   0  0  0  0  0  0  0  0  0  0  0  0
    1.3540   16.8830   18.1410 C   0  0  0  0  0  0  0  0  0  0  0  0
    0.1710   16.4340   18.7260 C   0  0  0  0  0  0  0  0  0  0  0  0
    1.3660   17.3370   16.6810 C   0  0  1  0  0  0  0  0  0  0  0  0
    1.5190   18.7810   16.4550 N   0  0  0  0  0  0  0  0  0  0  0  0
    2.3340   19.6290   17.3480 C   0  0  0  0  0  0  0  0  0  0  0  0
    1.0620   19.3390   15.2780 C   0  0  0  0  0  0  0  0  0  0  0  0
    0.8180   20.5430   15.1860 O   0  0  0  0  0  0  0  0  0  0  0  0
    2.3580   16.6310   15.9460 O   0  0  0  0  0  0  0  0  0  0  0  0
    2.3670   16.5790   14.5690 C   0  0  0  0  0  0  0  0  0  0  0  0
    3.1280   15.5590   14.0180 C   0  0  0  0  0  0  0  0  0  0  0  0
    1.6720   17.4660   13.7250 C   0  0  0  0  0  0  0  0  0  0  0  0
    3.8400   19.5550   17.1390 C   0  0  0  0  0  0  0  0  0  0  0  0
    0.8550   18.5450   14.1670 N   0  0  0  0  0  0  0  0  0  0  0  0
    3.2150   15.4100   12.6400 C   0  0  0  0  0  0  0  0  0  0  0  0
    2.5650   16.3040   11.7940 C   0  0  0  0  0  0  0  0  0  0  0  0
    4.7840   19.8420   18.2950 C   0  0  0  0  0  0  0  0  0  0  0  0
    1.7790   17.3210   12.3390 C   0  0  0  0  0  0  0  0  0  0  0  0
    2.7490   16.1680   10.2930 C   0  0  0  0  0  0  0  0  0  0  0  0
    4.2940   19.2520   16.0700 O   0  0  0  0  0  0  0  0  0  0  0  0
    5.8460   20.8960   18.0160 C   0  0  0  0  0  0  0  0  0  0  0  0
    4.2050   16.0960    9.8750 C   0  0  0  0  0  0  0  0  0  0  0  0
    5.5470   22.2040   17.5710 C   0  0  0  0  0  0  0  0  0  0  0  0
    4.5850   15.0850    9.2430 O   0  0  0  0  0  0  0  0  0  0  0  0
    7.1780   20.5090   18.1570 C   0  0  0  0  0  0  0  0  0  0  0  0
    4.9500   17.0500   10.1930 O   0  5  0  0  0  0  0  0  0  0  0  0
    4.1990   22.8040   17.6060 C   0  0  0  0  0  0  0  0  0  0  0  0
    3.8220   23.6930   16.5890 C   0  0  0  0  0  0  0  0  0  0  0  0
    6.5900   22.9900   17.0470 C   0  0  0  0  0  0  0  0  0  0  0  0
    2.5340   24.2170   16.5440 C   0  0  0  0  0  0  0  0  0  0  0  0
    1.6250   23.9180   17.5520 C   0  0  0  0  0  0  0  0  0  0  0  0
    3.3010   22.5910   18.6590 C   0  0  0  0  0  0  0  0  0  0  0  0
    2.0190   23.1240   18.6220 C   0  0  0  0  0  0  0  0  0  0  0  0
    6.2290   24.2680   16.2970 C   0  0  1  0  0  0  0  0  0  0  0  0
    7.9130   22.5840   17.2030 C   0  0  0  0  0  0  0  0  0  0  0  0
    8.2070   21.3610   17.7860 C   0  0  0  0  0  0  0  0  0  0  0  0
    7.2280   24.6230   15.3270 O   0  0  0  0  0  0  0  0  0  0  0  0
    4.8700   24.1210   15.5900 C   0  0  0  0  0  0  0  0  0  0  0  0
    3.4120   16.4950   20.8000 H   0  0  0  0  0  0  0  0  0  0  0  0
    3.4300   17.2090   18.4690 H   0  0  0  0  0  0  0  0  0  0  0  0
    1.3260   15.7230   21.8320 H   0  0  0  0  0  0  0  0  0  0  0  0
   -1.7170   15.6130   19.9880 H   0  0  0  0  0  0  0  0  0  0  0  0
   -0.7280   16.4110   18.1650 H   0  0  0  0  0  0  0  0  0  0  0  0
    0.4150   17.0400   16.2570 H   0  0  0  0  0  0  0  0  0  0  0  0
    2.0250   20.6610   17.2710 H   0  0  0  0  0  0  0  0  0  0  0  0
    2.0940   19.3850   18.3670 H   0  0  0  0  0  0  0  0  0  0  0  0
    3.6560   14.9020   14.6490 H   0  0  0  0  0  0  0  0  0  0  0  0
    0.2880   18.9960   13.4340 H   0  0  0  0  0  0  0  0  0  0  0  0
    3.7960   14.6230   12.2330 H   0  0  0  0  0  0  0  0  0  0  0  0
    4.2520   20.0800   19.1940 H   0  0  0  0  0  0  0  0  0  0  0  0
    5.2640   18.9130   18.5580 H   0  0  0  0  0  0  0  0  0  0  0  0
    1.2750   17.9970   11.6980 H   0  0  0  0  0  0  0  0  0  0  0  0
    2.2270   15.2850    9.9510 H   0  0  0  0  0  0  0  0  0  0  0  0
    2.2830   16.9970    9.7810 H   0  0  0  0  0  0  0  0  0  0  0  0
    7.4200   19.5500   18.5370 H   0  0  0  0  0  0  0  0  0  0  0  0
    2.2460   24.8600   15.7520 H   0  0  0  0  0  0  0  0  0  0  0  0
    0.6420   24.3130   17.5170 H   0  0  0  0  0  0  0  0  0  0  0  0
    3.5970   22.0340   19.5050 H   0  0  0  0  0  0  0  0  0  0  0  0
    1.3430   22.9300   19.4110 H   0  0  0  0  0  0  0  0  0  0  0  0
    6.1730   25.0850   17.0030 H   0  0  0  0  0  0  0  0  0  0  0  0
    8.7070   23.1950   16.8690 H   0  0  0  0  0  0  0  0  0  0  0  0
    9.2140   21.0660   17.9220 H   0  0  0  0  0  0  0  0  0  0  0  0
    7.3160   23.9110   14.6740 H   0  0  0  0  0  0  0  0  0  0  0  0
    4.9450   23.3650   14.8070 H   0  0  0  0  0  0  0  0  0  0  0  0
    4.5970   25.0750   15.1380 H   0  0  0  0  0  0  0  0  0  0  0  0
  1  2  2  0  0  0  0
  1  3  1  0  0  0  0
  1 43  1  0  0  0  0
  2  6  1  0  0  0  0
  2 44  1  0  0  0  0
  3  4  2  0  0  0  0
  3 45  1  0  0  0  0
  4  5  1  0  0  0  0
  4  7  1  0  0  0  0
  5 46  1  0  0  0  0
  6  7  2  0  0  0  0
  6  8  1  0  0  0  0
  7 47  1  0  0  0  0
  8  9  1  0  0  0  0
  8 13  1  0  0  0  0
  8 48  1  0  0  0  0
  9 10  1  0  0  0  0
  9 11  1  0  0  0  0
 10 17  1  0  0  0  0
 10 49  1  0  0  0  0
 10 50  1  0  0  0  0
 11 12  2  0  0  0  0
 11 18  1  0  0  0  0
 13 14  1  0  0  0  0
 14 15  2  0  0  0  0
 14 16  1  0  0  0  0
 15 19  1  0  0  0  0
 15 51  1  0  0  0  0
 16 18  1  0  0  0  0
 16 22  2  0  0  0  0
 17 21  1  0  0  0  0
 17 24  2  0  0  0  0
 18 52  1  0  0  0  0
 19 20  2  0  0  0  0
 19 53  1  0  0  0  0
 20 22  1  0  0  0  0
 20 23  1  0  0  0  0
 21 25  1  0  0  0  0
 21 54  1  0  0  0  0
 21 55  1  0  0  0  0
 22 56  1  0  0  0  0
 23 26  1  0  0  0  0
 23 57  1  0  0  0  0
 23 58  1  0  0  0  0
 25 27  2  0  0  0  0
 25 29  1  0  0  0  0
 26 28  2  0  0  0  0
 26 30  1  0  0  0  0
 27 31  1  0  0  0  0
 27 33  1  0  0  0  0
 29 40  2  0  0  0  0
 29 59  1  0  0  0  0
 31 32  1  0  0  0  0
 31 36  2  0  0  0  0
 32 34  2  0  0  0  0
 32 42  1  0  0  0  0
 33 38  1  0  0  0  0
 33 39  2  0  0  0  0
 34 35  1  0  0  0  0
 34 60  1  0  0  0  0
 35 37  2  0  0  0  0
 35 61  1  0  0  0  0
 36 37  1  0  0  0  0
 36 62  1  0  0  0  0
 37 63  1  0  0  0  0
 38 41  1  0  0  0  0
 38 42  1  0  0  0  0
 38 64  1  0  0  0  0
 39 40  1  0  0  0  0
 39 65  1  0  0  0  0
 40 66  1  0  0  0  0
 41 67  1  0  0  0  0
 42 68  1  0  0  0  0
 42 69  1  0  0  0  0
M  CHG  1  30  -1
M  END
> <rseq>
1

> <mseq>
525

> <S>
-6.906962

> <rmsd_refine>
1.465024

> <E_conf>
-159.2845

> <E_score1>
-12.51755

> <E_refine>
-40.96074

> <E_score2>
-6.906962

>  <$File>
outputs/pdb_4j58_cleaned.pdb_2024_06_17__22_47_40_V2_BS398_MIN1_/SDF/sdf_db.sdf

> <Rec_index>
1

>  <PLIF_raw>
[[10,30,30,30],[1504,823,823,829],[101,54,54,54],[3,2,7,7],[0.5,3.2,4.739868438,2.02880191]]

> <FP:PLIF>
6 19 1 16 8

>  <PLIF_ligidx>
[30,30,[30,30],30,10]

$$$$
525
  MOE2022           3D

 69 73  0  0  1  0  0  0  0  0999 V2000
    2.0230   16.4700   20.0300 C   0  0  0  0  0  0  0  0  0  0  0  0
    2.5560   17.0060   18.8600 C   0  0  0  0  0  0  0  0  0  0  0  0
    0.6930   16.0750   20.0700 C   0  0  0  0  0  0  0  0  0  0  0  0
   -0.0860   16.2190   18.9270 C   0  0  0  0  0  0  0  0  0  0  0  0
   -1.3830   15.8000   18.9570 O   0  0  0  0  0  0  0  0  0  0  0  0
    1.7680   17.1770   17.7170 C   0  0  0  0  0  0  0  0  0  0  0  0
    0.4330   16.7740   17.7580 C   0  0  0  0  0  0  0  0  0  0  0  0
    2.3450   17.7110   16.4040 C   0  0  1  0  0  0  0  0  0  0  0  0
    3.1760   18.9400   16.4410 N   0  0  0  0  0  0  0  0  0  0  0  0
    3.1070   19.8620   17.6030 C   0  0  0  0  0  0  0  0  0  0  0  0
    3.6880   19.5030   15.2740 C   0  0  0  0  0  0  0  0  0  0  0  0
    4.2930   20.5780   15.3070 O   0  0  0  0  0  0  0  0  0  0  0  0
    3.0680   16.6480   15.7900 O   0  0  0  0  0  0  0  0  0  0  0  0
    3.0720   16.5220   14.4320 C   0  0  0  0  0  0  0  0  0  0  0  0
    2.8930   15.2490   13.9030 C   0  0  0  0  0  0  0  0  0  0  0  0
    3.2920   17.6130   13.5830 C   0  0  0  0  0  0  0  0  0  0  0  0
    4.4160   20.0700   18.3580 C   0  0  0  0  0  0  0  0  0  0  0  0
    3.5160   18.9430   14.0190 N   0  0  0  0  0  0  0  0  0  0  0  0
    2.9980   15.0460   12.5300 C   0  0  0  0  0  0  0  0  0  0  0  0
    3.2550   16.1190   11.6780 C   0  0  0  0  0  0  0  0  0  0  0  0
    4.8090   21.4330   18.8890 C   0  0  0  0  0  0  0  0  0  0  0  0
    3.3730   17.4050   12.2040 C   0  0  0  0  0  0  0  0  0  0  0  0
    3.4540   15.8740   10.1930 C   0  0  0  0  0  0  0  0  0  0  0  0
    5.1150   19.1370   18.6230 O   0  0  0  0  0  0  0  0  0  0  0  0
    5.4890   22.3600   17.8780 C   0  0  0  0  0  0  0  0  0  0  0  0
    4.8480   15.3880    9.8480 C   0  0  0  0  0  0  0  0  0  0  0  0
    4.8110   23.5040   17.4060 C   0  0  0  0  0  0  0  0  0  0  0  0
    4.9620   14.2420    9.3590 O   0  0  0  0  0  0  0  0  0  0  0  0
    6.7930   22.0870   17.4240 C   0  0  0  0  0  0  0  0  0  0  0  0
    5.8050   16.1650   10.0590 O   0  5  0  0  0  0  0  0  0  0  0  0
    3.4840   23.8730   17.8880 C   0  0  0  0  0  0  0  0  0  0  0  0
    2.3310   23.4630   17.2040 C   0  0  0  0  0  0  0  0  0  0  0  0
    5.4540   24.3220   16.4660 C   0  0  0  0  0  0  0  0  0  0  0  0
    1.0690   23.7980   17.6800 C   0  0  0  0  0  0  0  0  0  0  0  0
    0.9600   24.5610   18.8410 C   0  0  0  0  0  0  0  0  0  0  0  0
    3.3480   24.6470   19.0490 C   0  0  0  0  0  0  0  0  0  0  0  0
   -0.2720   24.9030   19.3090 O   0  0  0  0  0  0  0  0  0  0  0  0
    7.6030   20.8900   17.9010 C   0  0  0  0  0  0  0  0  0  0  0  0
    2.0910   24.9890   19.5300 C   0  0  0  0  0  0  0  0  0  0  0  0
    7.3980   22.9280   16.4880 C   0  0  0  0  0  0  0  0  0  0  0  0
    4.8240   25.4330   15.9810 O   0  0  0  0  0  0  0  0  0  0  0  0
    6.7320   24.0430   16.0050 C   0  0  0  0  0  0  0  0  0  0  0  0
    2.6360   16.3590   20.8870 H   0  0  0  0  0  0  0  0  0  0  0  0
    3.5730   17.2790   18.8460 H   0  0  0  0  0  0  0  0  0  0  0  0
    0.2790   15.6650   20.9530 H   0  0  0  0  0  0  0  0  0  0  0  0
   -1.8040   15.9210   18.0840 H   0  0  0  0  0  0  0  0  0  0  0  0
   -0.1820   16.8720   16.9010 H   0  0  0  0  0  0  0  0  0  0  0  0
    1.5020   17.9240   15.7580 H   0  0  0  0  0  0  0  0  0  0  0  0
    2.7440   20.8210   17.2670 H   0  0  0  0  0  0  0  0  0  0  0  0
    2.3340   19.5510   18.2850 H   0  0  0  0  0  0  0  0  0  0  0  0
    2.6860   14.4330   14.5400 H   0  0  0  0  0  0  0  0  0  0  0  0
    3.7420   19.5990   13.2570 H   0  0  0  0  0  0  0  0  0  0  0  0
    2.8950   14.0670   12.1350 H   0  0  0  0  0  0  0  0  0  0  0  0
    3.9370   21.8880   19.3300 H   0  0  0  0  0  0  0  0  0  0  0  0
    5.4730   21.3010   19.7300 H   0  0  0  0  0  0  0  0  0  0  0  0
    3.5600   18.2230   11.5560 H   0  0  0  0  0  0  0  0  0  0  0  0
    2.7220   15.1590    9.8450 H   0  0  0  0  0  0  0  0  0  0  0  0
    3.2500   16.7790    9.6370 H   0  0  0  0  0  0  0  0  0  0  0  0
    2.4240   22.8920   16.3160 H   0  0  0  0  0  0  0  0  0  0  0  0
    0.2000   23.4800   17.1640 H   0  0  0  0  0  0  0  0  0  0  0  0
    4.2140   24.9740   19.5620 H   0  0  0  0  0  0  0  0  0  0  0  0
   -0.9780   24.4760   18.7850 H   0  0  0  0  0  0  0  0  0  0  0  0
    7.5110   20.7380   18.9750 H   0  0  0  0  0  0  0  0  0  0  0  0
    7.2810   19.9870   17.3840 H   0  0  0  0  0  0  0  0  0  0  0  0
    8.6640   21.0280   17.6930 H   0  0  0  0  0  0  0  0  0  0  0  0
    1.9900   25.5700   20.4100 H   0  0  0  0  0  0  0  0  0  0  0  0
    8.3760   22.7160   16.1400 H   0  0  0  0  0  0  0  0  0  0  0  0
    3.9240   25.5050   16.3570 H   0  0  0  0  0  0  0  0  0  0  0  0
    7.1940   24.6780   15.2940 H   0  0  0  0  0  0  0  0  0  0  0  0
  1  2  2  0  0  0  0
  1  3  1  0  0  0  0
  1 43  1  0  0  0  0
  2  6  1  0  0  0  0
  2 44  1  0  0  0  0
  3  4  2  0  0  0  0
  3 45  1  0  0  0  0
  4  5  1  0  0  0  0
  4  7  1  0  0  0  0
  5 46  1  0  0  0  0
  6  7  2  0  0  0  0
  6  8  1  0  0  0  0
  7 47  1  0  0  0  0
  8  9  1  0  0  0  0
  8 13  1  0  0  0  0
  8 48  1  0  0  0  0
  9 10  1  0  0  0  0
  9 11  1  0  0  0  0
 10 17  1  0  0  0  0
 10 49  1  0  0  0  0
 10 50  1  0  0  0  0
 11 12  2  0  0  0  0
 11 18  1  0  0  0  0
 13 14  1  0  0  0  0
 14 15  2  0  0  0  0
 14 16  1  0  0  0  0
 15 19  1  0  0  0  0
 15 51  1  0  0  0  0
 16 18  1  0  0  0  0
 16 22  2  0  0  0  0
 17 21  1  0  0  0  0
 17 24  2  0  0  0  0
 18 52  1  0  0  0  0
 19 20  2  0  0  0  0
 19 53  1  0  0  0  0
 20 22  1  0  0  0  0
 20 23  1  0  0  0  0
 21 25  1  0  0  0  0
 21 54  1  0  0  0  0
 21 55  1  0  0  0  0
 22 56  1  0  0  0  0
 23 26  1  0  0  0  0
 23 57  1  0  0  0  0
 23 58  1  0  0  0  0
 25 27  2  0  0  0  0
 25 29  1  0  0  0  0
 26 28  2  0  0  0  0
 26 30  1  0  0  0  0
 27 31  1  0  0  0  0
 27 33  1  0  0  0  0
 29 38  1  0  0  0  0
 29 40  2  0  0  0  0
 31 32  1  0  0  0  0
 31 36  2  0  0  0  0
 32 34  2  0  0  0  0
 32 59  1  0  0  0  0
 33 41  1  0  0  0  0
 33 42  2  0  0  0  0
 34 35  1  0  0  0  0
 34 60  1  0  0  0  0
 35 37  1  0  0  0  0
 35 39  2  0  0  0  0
 36 39  1  0  0  0  0
 36 61  1  0  0  0  0
 37 62  1  0  0  0  0
 38 63  1  0  0  0  0
 38 64  1  0  0  0  0
 38 65  1  0  0  0  0
 39 66  1  0  0  0  0
 40 42  1  0  0  0  0
 40 67  1  0  0  0  0
 41 68  1  0  0  0  0
 42 69  1  0  0  0  0
M  CHG  1  30  -1
M  END
> <rseq>
1

> <mseq>
526

> <S>
-7.163726

> <rmsd_refine>
1.551458

> <E_conf>
-187.5712

> <E_score1>
-13.02815

> <E_refine>
-44.00902

> <E_score2>
-7.163726

>  <$File>
outputs/pdb_4j58_cleaned.pdb_2024_06_17__22_47_40_V2_BS398_MIN1_/SDF/sdf_db.sdf

> <Rec_index>
1

>  <PLIF_raw>
[[30,30,30],[823,823,829],[54,54,54],[2,7,7],[5.4,4.853030801,0.7653557289]]

> <FP:PLIF>
6 19 1 16

>  <PLIF_ligidx>
[30,30,[30,30],30]

$$$$
